* File: opamp2_hspice.pex.netlist.pex
* Created: Wed Mar 22 22:30:36 2023
* Program "Calibre xRC"
* Version "v2022.2_15.10"
* Nominal Temperature: 25C
* Circuit Temperature: 25C
* 
.subckt PM_OPAMP2_NODW%NET8 4 8 12 17 22 27 32 34 36 39 42 47 54 59 66 71 78 83
+ 87 88 91 95 99 103 104 107 111 117 123 126 132 135 141 144 149 158 159 161 162
+ 163 164 166 167 168 169 171 172 173 174 176 177 185 193 198 205 207 211 213
+ 214 217 225 229 238 241 242 243 244 245 246 250 256 264 vss
c452 264 vss 9.8903e-20
c453 256 vss 9.86375e-19
c454 250 vss 0.00107661f
c455 245 vss 7.77066e-20
c456 243 vss 2.81634e-19
c457 242 vss 3.12807e-19
c458 238 vss 1.37573e-19
c459 205 vss 0.00164239f
c460 193 vss 2.17608e-20
c461 185 vss 1.24775e-20
c462 177 vss 0.00151198f
c463 176 vss 8.64693e-19
c464 172 vss 0.00215442f
c465 171 vss 8.64693e-19
c466 167 vss 0.00215442f
c467 166 vss 8.64693e-19
c468 162 vss 0.0013705f
c469 149 vss 0.00673854f
c470 111 vss 0.00268077f
c471 107 vss 0.00224283f
c472 104 vss 0.010914f
c473 103 vss 0.00224283f
c474 99 vss 0.00206198f
c475 95 vss 0.00114565f
c476 91 vss 0.00581229f
c477 88 vss 0.00177952f
c478 83 vss 0.00321803f
c479 71 vss 0.00391296f
c480 59 vss 0.00391296f
c481 47 vss 0.00340065f
c482 39 vss 0.00269017f
c483 32 vss 1.71319e-20
c484 17 vss 0.00611586f
c485 8 vss 0.019116f
c486 4 vss 0.0137531f
r487 261 264 4.51286
r488 256 264 4.5
r489 250 261 4.5
r490 250 253 8.54882
r491 246 247 0.119221
r492 241 242 0.0350649
r493 240 241 0.194026
r494 238 240 0.0597692
r495 238 239 0.0152308
r496 236 247 0.0352895
r497 234 236 0.236842
r498 232 234 0.438158
r499 229 232 0.236842
r500 226 245 0.0542103
r501 225 246 0.0240786
r502 225 226 0.954
r503 222 224 0.236842
r504 220 222 0.438158
r505 217 220 0.236842
r506 215 224 0.0198947
r507 214 245 0.00145957
r508 213 215 0.045
r509 213 214 0.0588462
r510 211 245 0.0542103
r511 211 244 0.6498
r512 208 243 0.00600464
r513 208 210 0.12
r514 207 244 0.0610382
r515 207 210 0.00889655
r516 205 256 4.5
r517 203 243 0.0430413
r518 203 205 1.32568
r519 198 200 0.236842
r520 198 242 0.144711
r521 196 243 0.0430413
r522 196 200 0.0364737
r523 193 239 0.221211
r524 188 253 4.5
r525 185 188 0.236842
r526 172 176 13.834
r527 167 171 13.834
r528 162 166 13.834
r529 158 161 13.834
r530 149 177 90.4528
r531 145 174 2.03438
r532 144 178 4.92474
r533 144 145 13.3309
r534 140 173 2.03438
r535 140 141 3.04028
r536 139 174 2.03438
r537 139 141 3.04028
r538 136 169 2.03438
r539 135 173 2.03438
r540 135 136 13.3309
r541 131 168 2.03438
r542 131 132 3.04028
r543 130 169 2.03438
r544 130 132 3.04028
r545 127 164 2.03438
r546 126 168 2.03438
r547 126 127 13.3309
r548 122 163 2.03438
r549 122 123 3.04028
r550 121 164 2.03438
r551 121 123 3.04028
r552 118 159 2.03438
r553 117 163 2.03438
r554 117 118 13.3309
r555 114 210 5.2
r556 112 159 2.03438
r557 112 114 2.51054
r558 108 111 7.05
r559 104 108 14.1
r560 104 107 7.05
r561 100 104 14.1
r562 100 103 7.05
r563 96 100 14.1
r564 96 99 7.05
r565 92 96 14.1
r566 92 149 7.81727
r567 92 95 7.05
r568 88 178 4.59201
r569 88 91 0.7755
r570 85 178 2.52138
r571 85 87 7.05
r572 80 177 7.79116
r573 80 176 7.79116
r574 80 83 7.05
r575 74 174 1.722
r576 74 173 1.722
r577 74 141 0.730158
r578 74 78 7.05
r579 68 172 7.79116
r580 68 171 7.79116
r581 68 71 7.05
r582 62 169 1.722
r583 62 168 1.722
r584 62 132 0.730158
r585 62 66 7.05
r586 56 167 7.79116
r587 56 166 7.79116
r588 56 59 7.05
r589 50 164 1.722
r590 50 163 1.722
r591 50 123 0.730158
r592 50 54 7.05
r593 44 162 7.79116
r594 44 161 7.79116
r595 44 47 7.05
r596 39 159 1.722
r597 39 114 1.65149
r598 39 42 7.05
r599 37 42 7.05
r600 34 37 6.01053
r601 34 36 7.05
r602 33 158 7.79116
r603 33 36 7.05
r604 32 188 5.2
r605 32 185 1.73333
r606 27 236 5.2
r607 27 234 1.73333
r608 22 232 5.2
r609 22 229 1.73333
r610 17 224 5.2
r611 17 222 1.73333
r612 12 220 5.2
r613 12 217 1.73333
r614 8 200 5.2
r615 8 198 1.73333
r616 4 238 5.2
r617 4 193 1.73333
.ends

.subckt PM_OPAMP2_NODW%VDD 2 25 35 45 55 65 75 85 95 120 127 134 141 148 155 162
+ 169 178 187 197 207 217 227 237 247 329 339 349 359 369 379 389 399 477 481
+ 485 489 493 497 501 505 509 513 517 521 525 529 533 573 582 592 602 612 622
+ 632 642 652 662 672 682 692 702 712 722 735 739 743 747 751 755 759 763 767
+ 771 775 779 783 787 791 952 961 971 981 991 1001 1011 1021 1031 1041 1051 1061
+ 1071 1081 1091 1101 1114 1118 1122 1126 1130 1134 1138 1142 1146 1150 1154
+ 1158 1162 1166 1170 2024 2483 2488 2496 2501 2506 2511 2516 2521 2526 2531
+ 2536 2541 2546 2551 2556 2561 2566 2571 2624 2628 2632 2636 2640 2644 2648
+ 2652 2656 2660 2664 2668 2672 2676 2680 2684 2688 2692 2696 2700 2704 2708
+ 2712 2716 2720 2724 2728 2732 2736 2740 2744 2748 2752 2756 2760 2764 2768
+ 2772 2776 2780 2784 2788 2792 2796 2800 2804 2808 2812 2816 2820 2824 2828
+ 2832 2836 2840 2844 2848 2852 2856 2860 2864 2868 2872 2876 2880 2884 2888
+ 2892 2896 2900 2904 2908 2912 2916 2920 2924 2928 2932 2936 2940 2944 2948
+ 2952 2956 2960 2964 2968 2972 2976 2980 2984 2988 2992 2996 3000 3004 3008
+ 3012 3016 3020 3024 3028 3032 3036 3040 3044 3048 3052 3056 3060 3064 3068
+ 3072 3076 3080 3084 3088 3097 3108 3118 3128 3138 3148 3158 3168 3178 3189
+ 3907 3908 3920 3921 3930 3932 3935 3936 3939 3940 3943 3947 3950 3953 3958
+ 3962 3966 3973 3978 3982 3986 3993 3998 4005 4010 4017 4025 4033 4041 4049
+ 4057 4065 4073 4081 4089 4097 4105 4113 4120 4122 4125 4129 4130 4135 4140
+ 4144 4148 4152 4156 4160 4164 4168 4172 4176 4180 4184 4230 4238 4239 4242
+ 4243 4265 4268 4277 4284 4295 4296 4307 4308 4319 4320 4331 4332 4343 4344
+ 4355 4356 4363 4447 4448 4449 4453 4454 4457 4458 4463 4464 4467 4468 4473
+ 4474 4477 4478 4481 4482 4485 4486 4489 4490 4495 4496 4499 4505 4508 4509
+ 4512 4514 4515 4516 4517 4518 4520 4521 4522 4523 4525 4526 4527 4529 4531
+ 4533 4535 4537 4539 4541 4543 4545 4547 4549 4551 4553 4585 4647 4648 4649
+ 4650 4651 4653 4654 4656 4657 4658 4661 4664 4680 4681 4686 4687 4707 4723
+ 4727 4728 4730 4733 4742 4745 4749 4753 4758 4761 4767 4771 4773 4774 4782
+ 4785 4811 4812 4813 4815 4923 4924 4927 4951 4952 4953 4955 4959 4983 4984
+ 4985 4987 4991 5015 5016 5017 5019 5024 5047 5048 5049 5051 5055 5079 5080
+ 5081 5083 5085 5086 5089 5093 5096 5099 5102 5105 5108 5123 5126 5127 5131
+ 5134 5139 5146 5150 5151 5156 5164 5176 5179 5183 5197 5201 5202 5216 5245
+ 5255 5264 5276 5304 5316 5319 5322 5339 5350 5355 5365 5376 5379 5380 5383
+ 5385 5388 5405 5416 5419 5429 5438 5441 5455 5456 5476 5479 5480 5492 5495
+ 5496 5508 5511 5512 5524 5527 5528 5540 5543 5544 5556 5559 5560 5572 5579
+ 5580 5592 5596 5597 5609 5612 5625 5630 5653 5665 5678 5684 5695 5698 5704
+ 5712 5742 5822 5824 5825 5846 5928 6010 6026 6028 6029 6031 6078 6081 6115
+ 6124 6126 6250 6251 6252 6253 6254 6255 6271 6285 6289 6294 6298 6301 6302
+ 6304 6305 6306 6308 6310 6318 6319 6320 6324 6325 6326 6328 6329 6333 6346
+ 6465 6469 6470 6473 6474 6475 6477 6480 6492 6499 6507 6510 6517 6527 6530
+ 6540 6544 6548 6552 6556 6560 6568 6572 6577 6585 6591 6607 6625 6628 6629
+ 6633 6639 6645 6651 6666 6676 6679 6686 6692 6694 6700 6704 6706 6708 6711
+ 6714 6715 6716 6717 6718 vss
c4113 6686 vss 3.93812e-19
c4114 6679 vss 7.36124e-19
c4115 6666 vss 2.94797e-19
c4116 6651 vss 2.89862e-19
c4117 6645 vss 2.35201e-21
c4118 6639 vss 4.41988e-19
c4119 6633 vss 2.35201e-21
c4120 6629 vss 4.2451e-19
c4121 6628 vss 3.55818e-19
c4122 6607 vss 1.76301e-19
c4123 6591 vss 1.755e-19
c4124 6585 vss 7.62628e-19
c4125 6577 vss 8.20542e-19
c4126 6572 vss 4.86966e-19
c4127 6560 vss 1.87745e-19
c4128 6552 vss 5.05485e-19
c4129 6548 vss 3.02603e-19
c4130 6544 vss 1.87745e-19
c4131 6530 vss 0.576918f
c4132 6527 vss 8.51281e-19
c4133 6517 vss 0.00109901f
c4134 6510 vss 0.00108674f
c4135 6507 vss 3.81579e-19
c4136 6499 vss 3.70516e-19
c4137 6492 vss 1.04337e-19
c4138 6475 vss 0.00207212f
c4139 6474 vss 2.72167e-20
c4140 6473 vss 0.00159337f
c4141 6470 vss 1.43562e-19
c4142 6469 vss 4.08944e-19
c4143 6346 vss 0.0212003f
c4144 6328 vss 1.18205e-19
c4145 6325 vss 0.00218319f
c4146 6324 vss 2.94764e-19
c4147 6318 vss 1.76559e-19
c4148 6305 vss 9.18179e-19
c4149 6304 vss 3.63538e-19
c4150 6298 vss 1.23564e-19
c4151 6289 vss 4.34319e-19
c4152 6285 vss 0.17606f
c4153 6271 vss 0.447613f
c4154 6255 vss 0.00117497f
c4155 6254 vss 1.7192e-19
c4156 6253 vss 0.00200873f
c4157 6252 vss 1.71755e-19
c4158 6251 vss 5.49612e-19
c4159 6250 vss 6.43218e-20
c4160 6126 vss 5.26641e-19
c4161 6115 vss 0.0700391f
c4162 6081 vss 4.52159e-19
c4163 6031 vss 0.0870347f
c4164 6029 vss 0.0332677f
c4165 6028 vss 0.037042f
c4166 6026 vss 0.0014079f
c4167 5712 vss 0.109897f
c4168 5698 vss 0.0296292f
c4169 5695 vss 0.0074479f
c4170 5684 vss 4.60942e-19
c4171 5665 vss 2.20981e-19
c4172 5653 vss 0.0312445f
c4173 5612 vss 2.90367e-19
c4174 5429 vss 5.27456e-19
c4175 5419 vss 6.4213e-19
c4176 5365 vss 5.12703e-19
c4177 5355 vss 9.84293e-19
c4178 5255 vss 0.0182885f
c4179 5245 vss 0.00121899f
c4180 5216 vss 1.62943e-20
c4181 5202 vss 0.00130142f
c4182 5156 vss 0.0319767f
c4183 5139 vss 0.0100336f
c4184 5123 vss 4.34319e-19
c4185 5105 vss 1.7192e-19
c4186 5099 vss 1.71755e-19
c4187 5093 vss 5.669e-20
c4188 5089 vss 1.25631e-19
c4189 5086 vss 0.015789f
c4190 5085 vss 2.36704e-19
c4191 5084 vss 6.61349e-20
c4192 5083 vss 0.0330654f
c4193 5079 vss 0.0946072f
c4194 5055 vss 1.11645e-19
c4195 5050 vss 1.78018e-19
c4196 5049 vss 0.0330654f
c4197 5047 vss 0.0808237f
c4198 5024 vss 3.61944e-19
c4199 5020 vss 1.8767e-19
c4200 5019 vss 0.0330654f
c4201 5015 vss 0.0946072f
c4202 4991 vss 1.11645e-19
c4203 4988 vss 6.58938e-20
c4204 4987 vss 0.0330654f
c4205 4983 vss 0.0946072f
c4206 4959 vss 1.11645e-19
c4207 4956 vss 1.89087e-19
c4208 4955 vss 0.0330654f
c4209 4951 vss 0.0946072f
c4210 4927 vss 2.8509e-19
c4211 4924 vss 0.0724919f
c4212 4923 vss 0.0370104f
c4213 4815 vss 1.14832e-19
c4214 4812 vss 0.0326936f
c4215 4811 vss 0.181739f
c4216 4774 vss 0.0202274f
c4217 4773 vss 0.0246787f
c4218 4772 vss 0.00544128f
c4219 4771 vss 1.74223e-19
c4220 4761 vss 2.95387e-19
c4221 4758 vss 0.00673128f
c4222 4749 vss 8.78448e-20
c4223 4745 vss 7.89156e-20
c4224 4733 vss 4.61079e-19
c4225 4707 vss 0.105286f
c4226 4661 vss 0.0437033f
c4227 4608 vss 0.00549467f
c4228 4607 vss 0.00379762f
c4229 4585 vss 4.08683e-20
c4230 4554 vss 0.00349822f
c4231 4552 vss 0.00349822f
c4232 4499 vss 0.00233721f
c4233 4381 vss 0.00547198f
c4234 4362 vss 0.0194914f
c4235 4358 vss 0.0202632f
c4236 4242 vss 0.00226471f
c4237 4239 vss 0.00577787f
c4238 4238 vss 0.00287339f
c4239 4129 vss 0.141054f
c4240 4125 vss 0.157895f
c4241 4122 vss 0.0742303f
c4242 4120 vss 0.116524f
c4243 4113 vss 0.0016954f
c4244 4105 vss 0.00554177f
c4245 4089 vss 0.00344765f
c4246 4073 vss 0.00483761f
c4247 4057 vss 0.0051714f
c4248 4041 vss 0.0110944f
c4249 4025 vss 0.00973053f
c4250 4010 vss 0.00380688f
c4251 3998 vss 0.00356555f
c4252 3993 vss 6.58448e-20
c4253 3986 vss 0.00329011f
c4254 3982 vss 0.00231035f
c4255 3978 vss 0.00328502f
c4256 3966 vss 0.00686072f
c4257 3962 vss 0.00382051f
c4258 3958 vss 0.00693168f
c4259 3950 vss 2.26815e-20
c4260 3189 vss 0.0063431f
c4261 3178 vss 1.13619e-19
c4262 3168 vss 0.00536805f
c4263 3158 vss 1.13619e-19
c4264 3148 vss 0.00525443f
c4265 3128 vss 0.00525443f
c4266 3108 vss 0.00668013f
c4267 3097 vss 2.27238e-19
c4268 3084 vss 0.0195284f
c4269 3080 vss 0.0489884f
c4270 3076 vss 0.0563266f
c4271 3072 vss 1.60877e-20
c4272 3068 vss 1.60877e-20
c4273 3064 vss 3.21755e-20
c4274 3060 vss 3.21755e-20
c4275 3056 vss 3.21755e-20
c4276 3052 vss 3.21755e-20
c4277 3048 vss 1.60877e-20
c4278 3044 vss 0.00527052f
c4279 3036 vss 0.00525443f
c4280 3032 vss 1.60877e-20
c4281 3028 vss 1.60877e-20
c4282 3024 vss 3.21755e-20
c4283 3020 vss 3.21755e-20
c4284 3016 vss 3.21755e-20
c4285 3012 vss 3.21755e-20
c4286 3008 vss 1.60877e-20
c4287 3004 vss 0.00527052f
c4288 2996 vss 0.00525443f
c4289 2992 vss 1.60877e-20
c4290 2988 vss 1.60877e-20
c4291 2984 vss 3.21755e-20
c4292 2980 vss 3.21755e-20
c4293 2976 vss 3.21755e-20
c4294 2972 vss 3.21755e-20
c4295 2968 vss 1.60877e-20
c4296 2964 vss 0.00527052f
c4297 2956 vss 0.00525443f
c4298 2952 vss 1.60877e-20
c4299 2948 vss 1.60877e-20
c4300 2944 vss 3.21755e-20
c4301 2940 vss 3.21755e-20
c4302 2936 vss 3.21755e-20
c4303 2932 vss 3.21755e-20
c4304 2928 vss 1.60877e-20
c4305 2924 vss 0.00527052f
c4306 2916 vss 0.00525443f
c4307 2912 vss 1.60877e-20
c4308 2908 vss 1.60877e-20
c4309 2904 vss 3.21755e-20
c4310 2900 vss 3.21755e-20
c4311 2896 vss 3.21755e-20
c4312 2892 vss 3.21755e-20
c4313 2888 vss 1.60877e-20
c4314 2884 vss 0.00527052f
c4315 2876 vss 0.00525443f
c4316 2872 vss 1.60877e-20
c4317 2868 vss 1.60877e-20
c4318 2864 vss 3.21755e-20
c4319 2860 vss 3.21755e-20
c4320 2856 vss 3.21755e-20
c4321 2852 vss 3.21755e-20
c4322 2848 vss 1.60877e-20
c4323 2844 vss 0.00527052f
c4324 2836 vss 0.00525443f
c4325 2832 vss 1.86137e-20
c4326 2828 vss 1.60877e-20
c4327 2824 vss 1.60877e-20
c4328 2820 vss 3.21755e-20
c4329 2816 vss 3.21755e-20
c4330 2812 vss 1.60877e-20
c4331 2808 vss 4.905e-20
c4332 2804 vss 0.00527052f
c4333 2796 vss 0.00525443f
c4334 2788 vss 0.0105089f
c4335 2784 vss 0.00525443f
c4336 2780 vss 0.00525443f
c4337 2776 vss 0.00525443f
c4338 2772 vss 0.00525443f
c4339 2768 vss 0.00525443f
c4340 2764 vss 0.00525443f
c4341 2760 vss 0.00622431f
c4342 2756 vss 0.0105089f
c4343 2752 vss 0.00525443f
c4344 2748 vss 0.00527052f
c4345 2744 vss 3.21755e-20
c4346 2740 vss 0.0105089f
c4347 2736 vss 0.00527157f
c4348 2732 vss 0.00525443f
c4349 2728 vss 1.60877e-20
c4350 2724 vss 0.0105089f
c4351 2712 vss 1.60877e-20
c4352 2708 vss 0.00525443f
c4353 2684 vss 0.00525443f
c4354 2680 vss 0.00525443f
c4355 2676 vss 0.00525443f
c4356 2672 vss 1.60877e-20
c4357 2668 vss 1.60877e-20
c4358 2664 vss 0.00527052f
c4359 2660 vss 0.0105089f
c4360 2656 vss 0.00525443f
c4361 2652 vss 0.00525443f
c4362 2640 vss 0.00525443f
c4363 2636 vss 0.0105089f
c4364 2632 vss 0.00687654f
c4365 2628 vss 0.00687654f
c4366 2624 vss 0.0162943f
c4367 2571 vss 1.79401e-19
c4368 2566 vss 0.0140272f
c4369 2561 vss 1.93645e-19
c4370 2556 vss 2.25056e-19
c4371 2551 vss 2.16646e-19
c4372 2546 vss 3.56347e-19
c4373 2541 vss 1.72147e-19
c4374 2536 vss 1.72147e-19
c4375 2531 vss 1.95251e-19
c4376 2526 vss 1.9912e-19
c4377 2521 vss 1.89425e-19
c4378 2516 vss 1.89425e-19
c4379 2511 vss 2.01641e-19
c4380 2506 vss 2.35894e-19
c4381 2501 vss 2.08889e-19
c4382 2496 vss 6.0448e-19
c4383 2488 vss 3.01745e-19
c4384 2483 vss 2.51362e-19
c4385 2024 vss 0.083396f
c4386 95 vss 1.13619e-19
c4387 85 vss 1.13619e-19
c4388 75 vss 1.13619e-19
c4389 65 vss 1.13619e-19
c4390 55 vss 1.13619e-19
c4391 45 vss 1.13619e-19
c4392 35 vss 1.13619e-19
c4393 25 vss 1.13619e-19
c4394 2 vss 0.10254f
r4395 6717 6718 1.16704
r4396 6716 6717 1.16704
r4397 6715 6716 1.16704
r4398 6714 6718 1.16704
r4399 6711 6715 1.16704
r4400 6706 6708 0.352994
r4401 6703 6704 0.65911
r4402 6702 6706 0.757034
r4403 6702 6704 0.65911
r4404 6700 6703 0.65911
r4405 6698 6700 0.0510473
r4406 6696 6698 0.068063
r4407 6694 6696 0.068063
r4408 6692 6694 1.57504
r4409 6689 6692 0.320463
r4410 6684 6686 0.481399
r4411 6681 6684 0.424197
r4412 6679 6681 0.641969
r4413 6676 6679 0.632176
r4414 6673 6676 0.642435
r4415 6670 6673 0.635751
r4416 6668 6670 0.630155
r4417 6666 6668 0.652539
r4418 6664 6666 1.54632
r4419 6662 6664 0.700414
r4420 6660 6662 0.0665285
r4421 6657 6660 0.0317098
r4422 6654 6681 4.5
r4423 6654 6655 0.0307273
r4424 6651 6654 0.00363636
r4425 6651 6652 0.0529091
r4426 6648 6676 4.5
r4427 6648 6649 0.0307273
r4428 6645 6648 0.00363636
r4429 6645 6646 0.0529091
r4430 6642 6673 4.5
r4431 6642 6643 0.0301188
r4432 6639 6642 0.00356436
r4433 6639 6640 0.0518614
r4434 6636 6670 4.5
r4435 6636 6637 0.0301188
r4436 6633 6636 0.00356436
r4437 6633 6634 0.0518614
r4438 6629 6630 0.850707
r4439 6628 6708 0.225
r4440 6628 6630 0.850744
r4441 6625 6714 0.225
r4442 6625 6629 0.850707
r4443 6622 6706 2.25
r4444 6620 6622 0.827625
r4445 6618 6620 0.078
r4446 6616 6618 0.117
r4447 6614 6616 0.117
r4448 6612 6614 0.117
r4449 6610 6612 0.117
r4450 6607 6610 1.09913
r4451 6604 6702 2.25
r4452 6602 6604 2.286
r4453 6600 6602 0.078
r4454 6598 6600 0.117
r4455 6596 6598 0.117
r4456 6594 6596 0.117
r4457 6591 6594 0.117
r4458 6588 6686 2.25
r4459 6585 6588 0.00371134
r4460 6580 6684 2.25
r4461 6580 6582 0.205979
r4462 6577 6580 0.00371134
r4463 6574 6681 4.5
r4464 6572 6574 0.00371134
r4465 6572 6655 0.174619
r4466 6568 6652 3.19757
r4467 6560 6676 4.5
r4468 6560 6649 0.17833
r4469 6556 6646 3.19757
r4470 6552 6673 4.5
r4471 6552 6643 0.17833
r4472 6548 6640 3.19757
r4473 6544 6670 4.5
r4474 6544 6637 0.17833
r4475 6540 6634 3.19757
r4476 6533 6700 1.125
r4477 6533 6698 0.28125
r4478 6533 6696 0.28125
r4479 6533 6694 0.28125
r4480 6530 6533 0.233169
r4481 6527 6668 2.25
r4482 6524 6527 0.00247253
r4483 6517 6666 2.25
r4484 6517 6521 0.209691
r4485 6510 6664 2.25
r4486 6510 6514 0.209691
r4487 6507 6689 0.225
r4488 6505 6660 1.5
r4489 6505 6507 1.72777
r4490 6502 6662 2.25
r4491 6502 6657 1.5
r4492 6502 6505 0.0204012
r4493 6499 6711 0.225
r4494 6499 6502 0.761795
r4495 6496 6620 4.5
r4496 6491 6492 0.0376744
r4497 6485 6591 1.5
r4498 6483 6485 0.00499323
r4499 6480 6483 0.0121786
r4500 6480 6481 0.0731504
r4501 6477 6478 0.0410625
r4502 6474 6478 3.30194
r4503 6473 6585 2.25
r4504 6473 6474 0.0365396
r4505 6469 6577 4.5
r4506 6469 6471 0.0838924
r4507 6469 6470 0.037604
r4508 6467 6470 3.16577
r4509 6465 6467 0.03942
r4510 6465 6466 0.05868
r4511 6350 6352 0.1725
r4512 6324 6325 0.27
r4513 6323 6324 0.0850909
r4514 6318 6319 0.27
r4515 6317 6318 0.0850909
r4516 6308 6309 0.00233766
r4517 6305 6306 0.0593766
r4518 6304 6305 0.27
r4519 6301 6524 2.25
r4520 6301 6302 0.042
r4521 6299 6302 3.13347
r4522 6298 6299 0.03942
r4523 6294 6295 0.0385694
r4524 6289 6517 4.5
r4525 6289 6291 0.029173
r4526 6289 6290 0.0380886
r4527 6283 6285 0.0100385
r4528 6280 6283 0.0103235
r4529 6277 6280 0.0480543
r4530 6274 6277 0.020362
r4531 6268 6271 0.0203943
r4532 6264 6268 0.0481305
r4533 6262 6264 0.0100952
r4534 6259 6262 0.0102991
r4535 6254 6255 0.204324
r4536 6252 6253 0.204324
r4537 6250 6251 0.204324
r4538 6245 6248 0.0435887
r4539 6238 6241 0.0436754
r4540 6231 6234 0.0435887
r4541 6224 6227 0.0436754
r4542 6218 6221 0.0435887
r4543 6211 6214 0.0436754
r4544 6205 6208 0.0435887
r4545 6198 6201 0.0436754
r4546 6192 6195 0.0435887
r4547 6185 6188 0.0436754
r4548 6178 6181 0.0436407
r4549 6170 6172 0.0331608
r4550 6167 6170 0.0414169
r4551 6164 6167 0.0332425
r4552 6153 6156 0.0414169
r4553 6150 6153 0.0332425
r4554 6147 6150 0.0324251
r4555 6144 6147 0.00899183
r4556 6141 6144 0.0332425
r4557 6139 6141 0.0208447
r4558 6137 6139 0.0100817
r4559 6135 6137 0.0104905
r4560 6132 6135 0.0122616
r4561 6129 6132 0.00735695
r4562 6121 6123 0.0265
r4563 6119 6121 0.0170714
r4564 6110 6115 0.0233208
r4565 6105 6110 0.018718
r4566 6100 6105 0.0233208
r4567 6095 6100 0.018718
r4568 6093 6095 0.0174139
r4569 6089 6093 0.00590692
r4570 6084 6089 0.0110467
r4571 6081 6510 4.5
r4572 6081 6082 0.0310408
r4573 6078 6079 0.0390297
r4574 6071 6074 0.0281778
r4575 6067 6071 0.0664997
r4576 6057 6618 1.5
r4577 6057 6059 0.0140054
r4578 6055 6057 0.0103518
r4579 6053 6055 0.0121786
r4580 6051 6616 1.5
r4581 6051 6053 0.0154668
r4582 6049 6051 0.00889039
r4583 6047 6049 0.0121786
r4584 6045 6614 1.5
r4585 6045 6047 0.0169283
r4586 6043 6045 0.00742896
r4587 6041 6043 0.0121786
r4588 6039 6612 1.5
r4589 6039 6041 0.0183897
r4590 6037 6039 0.00596752
r4591 6035 6037 0.0121786
r4592 6033 6610 1.5
r4593 6033 6035 0.0198511
r4594 6031 6033 0.00450609
r4595 6029 6496 0.0153552
r4596 6029 6059 0.00779432
r4597 6028 6494 0.0153552
r4598 6028 6031 0.00219215
r4599 6026 6607 2.25
r4600 6026 6492 3.39141
r4601 6021 6023 0.304535
r4602 6019 6021 0.304535
r4603 6017 6019 0.304535
r4604 6015 6017 0.304535
r4605 6012 6015 0.304535
r4606 6010 6491 0.00732558
r4607 6010 6023 0.193605
r4608 6007 6009 0.0523256
r4609 6005 6007 0.104651
r4610 6003 6005 0.0523256
r4611 6001 6003 0.104651
r4612 5999 6001 0.0523256
r4613 5997 5999 0.104651
r4614 5995 5997 0.0523256
r4615 5993 5995 0.104651
r4616 5991 5993 0.0523256
r4617 5989 5991 0.104651
r4618 5987 5989 0.0523256
r4619 5985 5987 0.104651
r4620 5983 5985 0.0523256
r4621 5981 5983 0.104651
r4622 5979 5981 0.0523256
r4623 5977 5979 0.104651
r4624 5975 5977 0.0523256
r4625 5973 5975 0.104651
r4626 5971 5973 0.0523256
r4627 5969 5971 0.104651
r4628 5967 5969 0.0523256
r4629 5965 5967 0.104651
r4630 5963 5965 0.0523256
r4631 5961 5963 0.104651
r4632 5959 5961 0.0523256
r4633 5957 5959 0.104651
r4634 5955 5957 0.0523256
r4635 5953 5955 0.104651
r4636 5951 5953 0.0523256
r4637 5949 5951 0.104651
r4638 5947 5949 0.0523256
r4639 5945 5947 0.104651
r4640 5943 5945 0.0523256
r4641 5941 5943 0.104651
r4642 5939 5941 0.0523256
r4643 5937 5939 0.104651
r4644 5935 5937 0.0523256
r4645 5933 5935 0.104651
r4646 5931 5933 0.0523256
r4647 5929 6489 0.0251428
r4648 5929 5931 0.0334884
r4649 5928 6496 0.0659559
r4650 5928 6009 0.0847674
r4651 5925 5927 0.0523256
r4652 5923 5925 0.104651
r4653 5921 5923 0.0523256
r4654 5919 5921 0.104651
r4655 5917 5919 0.0523256
r4656 5915 5917 0.104651
r4657 5913 5915 0.0523256
r4658 5911 5913 0.104651
r4659 5909 5911 0.0523256
r4660 5907 5909 0.104651
r4661 5905 5907 0.0523256
r4662 5903 5905 0.104651
r4663 5901 5903 0.0523256
r4664 5899 5901 0.104651
r4665 5897 5899 0.0523256
r4666 5895 5897 0.104651
r4667 5893 5895 0.0523256
r4668 5891 5893 0.104651
r4669 5889 5891 0.0523256
r4670 5887 5889 0.104651
r4671 5885 5887 0.0523256
r4672 5883 5885 0.104651
r4673 5881 5883 0.0523256
r4674 5879 5881 0.104651
r4675 5877 5879 0.0523256
r4676 5875 5877 0.104651
r4677 5873 5875 0.0523256
r4678 5871 5873 0.104651
r4679 5869 5871 0.0523256
r4680 5867 5869 0.104651
r4681 5865 5867 0.0523256
r4682 5863 5865 0.104651
r4683 5861 5863 0.0523256
r4684 5859 5861 0.104651
r4685 5857 5859 0.0523256
r4686 5855 5857 0.104651
r4687 5853 5855 0.0523256
r4688 5851 5853 0.104651
r4689 5849 5851 0.0523256
r4690 5847 6487 0.0251428
r4691 5847 5849 0.085814
r4692 5846 6494 0.0659559
r4693 5846 5927 0.0324419
r4694 5843 5845 0.104651
r4695 5841 5843 0.0523256
r4696 5839 5841 0.104651
r4697 5837 5839 0.0523256
r4698 5835 5837 0.104651
r4699 5833 5835 0.0523256
r4700 5831 5833 0.104651
r4701 5829 5831 0.0523256
r4702 5827 5829 0.104651
r4703 5825 6489 0.0251428
r4704 5825 5845 0.0334884
r4705 5824 6487 0.0251428
r4706 5824 5827 0.0094186
r4707 5820 5822 0.0523256
r4708 5818 5820 0.104651
r4709 5816 5818 0.0523256
r4710 5814 5816 0.104651
r4711 5812 5814 0.0523256
r4712 5810 5812 0.104651
r4713 5808 5810 0.0523256
r4714 5806 5808 0.104651
r4715 5804 5806 0.0523256
r4716 5802 5804 0.104651
r4717 5800 5802 0.0523256
r4718 5798 5800 0.104651
r4719 5796 5798 0.0523256
r4720 5794 5796 0.104651
r4721 5792 5794 0.0523256
r4722 5790 5792 0.104651
r4723 5788 5790 0.0523256
r4724 5786 5788 0.104651
r4725 5784 5786 0.0523256
r4726 5782 5784 0.104651
r4727 5780 5782 0.0523256
r4728 5778 5780 0.104651
r4729 5776 5778 0.0523256
r4730 5774 5776 0.104651
r4731 5772 5774 0.0523256
r4732 5770 5772 0.104651
r4733 5768 5770 0.0523256
r4734 5766 5768 0.104651
r4735 5764 5766 0.0523256
r4736 5762 5764 0.104651
r4737 5760 5762 0.0523256
r4738 5758 5760 0.104651
r4739 5756 5758 0.0523256
r4740 5754 5756 0.104651
r4741 5752 5754 0.0523256
r4742 5750 5752 0.104651
r4743 5747 5750 0.0523256
r4744 5745 6481 0.00627907
r4745 5742 5745 0.104651
r4746 5738 6602 4.5
r4747 5736 5738 0.0239919
r4748 5734 6600 1.5
r4749 5734 5736 0.00133965
r4750 5732 5734 0.010839
r4751 5730 5732 0.0121786
r4752 5728 6598 1.5
r4753 5728 5730 0.0149797
r4754 5726 5728 0.00937754
r4755 5724 5726 0.0121786
r4756 5722 6596 1.5
r4757 5722 5724 0.0164411
r4758 5720 5722 0.0079161
r4759 5718 5720 0.0121786
r4760 5716 6594 1.5
r4761 5716 5718 0.0179026
r4762 5714 5716 0.00645467
r4763 5712 5714 0.0121786
r4764 5710 6485 0.0170988
r4765 5710 5712 0.00226522
r4766 5704 5707 0.264375
r4767 5702 6477 0.0039375
r4768 5702 5707 0.172312
r4769 5698 5700 0.17625
r4770 5698 6475 0.06675
r4771 5693 6475 0.0479416
r4772 5693 5695 0.118552
r4773 5692 6473 0.0122586
r4774 5692 5695 0.0645517
r4775 5688 5690 0.17625
r4776 5686 6582 4.5
r4777 5686 5688 0.145313
r4778 5684 5686 0.119062
r4779 5684 6471 0.004875
r4780 5681 6466 0.115125
r4781 5678 5681 0.264375
r4782 5670 6568 4.5
r4783 5670 5672 0.039375
r4784 5668 5670 0.136875
r4785 5665 5668 0.264375
r4786 5660 5662 0.17625
r4787 5658 6572 4.5
r4788 5658 5660 0.145313
r4789 5656 5658 0.119062
r4790 5653 6651 4.5
r4791 5653 5656 0.0928125
r4792 5628 6441 0.00363379
r4793 5628 5651 0.00576271
r4794 5626 6352 0.045
r4795 5625 6455 0.27457
r4796 5625 5626 0.09625
r4797 5622 5624 0.26
r4798 5620 5622 0.39
r4799 5618 5620 0.39
r4800 5616 5618 0.39
r4801 5614 5616 0.39
r4802 5612 5614 0.39
r4803 5610 6352 0.00528559
r4804 5610 5624 0.2125
r4805 5609 6354 0.0138214
r4806 5609 5630 0.00522034
r4807 5609 5612 0.48625
r4808 5598 6350 0.00283338
r4809 5598 5599 0.136184
r4810 5597 6350 0.00283338
r4811 5596 6349 0.0524569
r4812 5596 5597 0.0994737
r4813 5593 6348 0.0475
r4814 5592 6350 0.0475
r4815 5582 6408 0.00436006
r4816 5581 6348 0.0426316
r4817 5581 5582 0.136184
r4818 5580 6348 0.0426316
r4819 5579 6347 0.0524569
r4820 5579 5580 0.0959211
r4821 5576 6346 0.0161986
r4822 5575 6408 0.180688
r4823 5575 5576 0.557763
r4824 5573 6345 0.0475
r4825 5572 6348 0.0475
r4826 5561 6345 0.0426316
r4827 5561 5562 0.136184
r4828 5560 6345 0.0426316
r4829 5559 6344 0.0524569
r4830 5559 5560 0.0935526
r4831 5557 6343 0.0475
r4832 5556 6345 0.0475
r4833 5545 6343 0.0426316
r4834 5545 5546 0.136184
r4835 5544 6343 0.0426316
r4836 5543 6342 0.0524569
r4837 5543 5544 0.0959211
r4838 5541 6341 0.0475
r4839 5540 6343 0.0475
r4840 5529 6341 0.0426316
r4841 5529 5530 0.136184
r4842 5528 6341 0.0426316
r4843 5527 6340 0.0524569
r4844 5527 5528 0.0959211
r4845 5525 6339 0.0475
r4846 5524 6341 0.0475
r4847 5513 6339 0.0426316
r4848 5513 5514 0.136184
r4849 5512 6339 0.0426316
r4850 5511 6338 0.0524569
r4851 5511 5512 0.0923684
r4852 5509 6337 0.0475
r4853 5508 6339 0.0475
r4854 5498 6383 0.00393812
r4855 5497 6337 0.0426316
r4856 5497 5498 0.136184
r4857 5496 6337 0.0426316
r4858 5495 6336 0.0524569
r4859 5495 5496 0.0959211
r4860 5493 6335 0.0475
r4861 5492 6337 0.0475
r4862 5482 6377 0.00295359
r4863 5481 6335 0.0426316
r4864 5481 5482 0.136184
r4865 5480 6335 0.0426316
r4866 5479 6334 0.0524569
r4867 5479 5480 0.0935526
r4868 5477 6333 0.00990414
r4869 5476 6335 0.0475
r4870 5473 5475 0.306818
r4871 5471 5473 0.306818
r4872 5469 5471 0.306818
r4873 5467 5469 0.306818
r4874 5465 5467 0.306818
r4875 5463 5465 0.306818
r4876 5461 5463 0.306818
r4877 5459 5461 0.306818
r4878 5457 6331 0.0229241
r4879 5457 5459 0.182045
r4880 5456 6354 0.163662
r4881 5456 5475 0.0838636
r4882 5455 6373 0.000492264
r4883 5454 6333 0.0381101
r4884 5454 5455 0.14375
r4885 5451 5453 0.26
r4886 5449 5451 0.39
r4887 5447 5449 0.39
r4888 5445 5447 0.39
r4889 5443 5445 0.39
r4890 5441 5443 0.39
r4891 5439 6333 0.0381101
r4892 5439 5453 0.2125
r4893 5438 6331 0.0280183
r4894 5438 5441 0.48625
r4895 5434 5436 0.17625
r4896 5432 5434 0.264375
r4897 5429 6645 2.25
r4898 5429 5432 0.0928125
r4899 5424 6556 4.5
r4900 5424 5426 0.039375
r4901 5422 5424 0.136875
r4902 5419 5422 0.264375
r4903 5417 6329 0.00567315
r4904 5416 6346 0.0312468
r4905 5416 5417 6.19781
r4906 5415 6327 0.0319737
r4907 5413 5415 0.236842
r4908 5411 5413 0.355263
r4909 5409 5411 0.355263
r4910 5407 5409 0.355263
r4911 5405 5407 0.355263
r4912 5405 6326 0.156316
r4913 5401 6323 0.0935526
r4914 5399 5401 0.236842
r4915 5397 5399 0.355263
r4916 5395 5397 0.355263
r4917 5393 5395 0.355263
r4918 5391 5393 0.355263
r4919 5388 5391 0.355263
r4920 5385 6329 0.0675454
r4921 5385 6328 0.258158
r4922 5381 6328 0.0448831
r4923 5381 5383 0.0158961
r4924 5380 6327 0.0448831
r4925 5380 5383 0.0404416
r4926 5377 6326 0.0448831
r4927 5377 5379 0.151481
r4928 5376 6325 0.0448831
r4929 5376 5379 0.132779
r4930 5370 6548 4.5
r4931 5370 5372 0.039375
r4932 5368 5370 0.136875
r4933 5365 5368 0.264375
r4934 5360 5362 0.17625
r4935 5358 5360 0.264375
r4936 5355 6639 2.25
r4937 5355 5358 0.0928125
r4938 5351 6322 0.00311694
r4939 5351 5353 0.0206544
r4940 5350 6329 0.00567315
r4941 5350 5353 0.0897512
r4942 5347 5349 0.236842
r4943 5345 5347 0.355263
r4944 5343 5345 0.355263
r4945 5341 5343 0.355263
r4946 5339 5341 0.355263
r4947 5339 6320 0.156316
r4948 5337 6322 0.0849599
r4949 5337 5349 0.438158
r4950 5335 6317 0.0935526
r4951 5333 5335 0.236842
r4952 5331 5333 0.355263
r4953 5329 5331 0.355263
r4954 5327 5329 0.355263
r4955 5325 5327 0.355263
r4956 5322 5325 0.355263
r4957 5317 6320 0.0448831
r4958 5317 5319 0.151481
r4959 5316 6319 0.0448831
r4960 5316 5319 0.132779
r4961 5311 5313 0.0233917
r4962 5309 5311 0.0233917
r4963 5307 5309 0.0233917
r4964 5305 6316 0.00311694
r4965 5305 5307 0.0204885
r4966 5304 6322 0.00311694
r4967 5304 5313 0.0198249
r4968 5301 5303 0.236842
r4969 5299 5301 0.355263
r4970 5297 5299 0.355263
r4971 5295 5297 0.355263
r4972 5293 5295 0.355263
r4973 5291 5293 0.355263
r4974 5289 5291 0.63
r4975 5287 5289 0.236842
r4976 5285 5287 0.355263
r4977 5283 5285 0.355263
r4978 5281 5283 0.355263
r4979 5279 5281 0.355263
r4980 5276 5279 0.355263
r4981 5274 6316 0.0849599
r4982 5274 5303 0.438158
r4983 5271 5273 0.0233917
r4984 5269 5271 0.0233917
r4985 5267 5269 0.0233917
r4986 5265 6314 0.00311694
r4987 5265 5267 0.0203226
r4988 5264 6316 0.00311694
r4989 5264 5273 0.0199908
r4990 5260 5262 0.17625
r4991 5258 5260 0.264375
r4992 5255 6633 2.25
r4993 5255 5258 0.0928125
r4994 5250 6540 4.5
r4995 5250 5252 0.039375
r4996 5248 5250 0.136875
r4997 5245 5248 0.264375
r4998 5241 5243 0.236842
r4999 5239 5241 0.355263
r5000 5237 5239 0.355263
r5001 5235 5237 0.355263
r5002 5233 5235 0.355263
r5003 5231 5233 0.355263
r5004 5229 5231 0.63
r5005 5227 5229 0.236842
r5006 5225 5227 0.355263
r5007 5223 5225 0.355263
r5008 5221 5223 0.355263
r5009 5219 5221 0.355263
r5010 5216 5219 0.355263
r5011 5214 6314 0.0849599
r5012 5214 5243 0.438158