* File: opamp2_hspice.pex.netlist
* Created: Wed Mar 22 22:30:36 2023
* Program "Calibre xRC"
* Version "v2022.2_15.10"
* 
.include "opamp2_hspice.pex.netlist.pex"
.subckt opamp2_nodw  VBIASN VBIASP VDD VIN1 VIN2 VOUT VOUT_T VPROG VSS
* 
* VOUT_T	VOUT_T
* VBIASN	VBIASN
* VOUT	VOUT
* VBIASP	VBIASP
* VIN1	VIN1
* VIN2	VIN2
* VSS	VSS
* VPROG	VPROG
* VDD	VDD
XMMN25<4> N_VSS_MMN25<4>_d N_VSS_MMN25<4>_g N_VSS_MMN25<4>_s N_VSS_MMN25<4>_b
+ nfet_03v3 L=3e-07 W=1e-05 AD=2.6e-12 AS=4.4e-12 PD=1.052e-05 PS=2.088e-05
+ NRD=0.026 NRS=0.044 M=1 NF=1 PAR=1
XMMN25<3>@10 N_VSS_MMN25<3>@10_d N_VSS_MMN25<3>@10_g N_VSS_MMN25<3>@10_s
+ N_VSS_MMN25<4>_b nfet_03v3 L=3e-07 W=1e-05 AD=2.6e-12 AS=4.4e-12 PD=1.052e-05
+ PS=2.088e-05 NRD=0.026 NRS=0.044 M=1 NF=1 PAR=1
XMMN25<3>@9 N_VSS_MMN25<4>_s N_VSS_MMN25<3>@9_g N_VSS_MMN25<3>@9_s
+ N_VSS_MMN25<4>_b nfet_03v3 L=3e-07 W=1e-05 AD=2.6e-12 AS=2.6e-12 PD=1.052e-05
+ PS=1.052e-05 NRD=0.026 NRS=0.026 M=1 NF=1 PAR=1
XMMN25<3>@8 N_VSS_MMN25<3>@10_s N_VSS_MMN25<3>@8_g N_VSS_MMN25<3>@8_s
+ N_VSS_MMN25<4>_b nfet_03v3 L=3e-07 W=1e-05 AD=2.6e-12 AS=2.6e-12 PD=1.052e-05
+ PS=1.052e-05 NRD=0.026 NRS=0.026 M=1 NF=1 PAR=1
XMMN25<3>@7 N_VSS_MMN25<3>@9_s N_VSS_MMN25<3>@7_g N_VSS_MMN25<3>@7_s
+ N_VSS_MMN25<4>_b nfet_03v3 L=3e-07 W=1e-05 AD=2.6e-12 AS=2.6e-12 PD=1.052e-05
+ PS=1.052e-05 NRD=0.026 NRS=0.026 M=1 NF=1 PAR=1
XMMN25<3>@6 N_VSS_MMN25<3>@8_s N_VSS_MMN25<3>@6_g N_VSS_MMN25<3>@6_s
+ N_VSS_MMN25<4>_b nfet_03v3 L=3e-07 W=1e-05 AD=2.6e-12 AS=2.6e-12 PD=1.052e-05
+ PS=1.052e-05 NRD=0.026 NRS=0.026 M=1 NF=1 PAR=1
XMMN25<3>@5 N_VSS_MMN25<3>@7_s N_VSS_MMN25<3>@5_g N_VSS_MMN25<3>@5_s
+ N_VSS_MMN25<4>_b nfet_03v3 L=3e-07 W=1e-05 AD=2.6e-12 AS=2.6e-12 PD=1.052e-05
+ PS=1.052e-05 NRD=0.026 NRS=0.026 M=1 NF=1 PAR=1
XMMN25<3>@4 N_VSS_MMN25<3>@6_s N_VSS_MMN25<3>@4_g N_VSS_MMN25<3>@4_s
+ N_VSS_MMN25<4>_b nfet_03v3 L=3e-07 W=1e-05 AD=2.6e-12 AS=2.6e-12 PD=1.052e-05
+ PS=1.052e-05 NRD=0.026 NRS=0.026 M=1 NF=1 PAR=1
XMMN25<3>@3 N_VSS_MMN25<3>@5_s N_VSS_MMN25<3>@3_g N_VSS_MMN25<3>@3_s
+ N_VSS_MMN25<4>_b nfet_03v3 L=3e-07 W=1e-05 AD=2.6e-12 AS=2.6e-12 PD=1.052e-05
+ PS=1.052e-05 NRD=0.026 NRS=0.026 M=1 NF=1 PAR=1
XMMN25<3>@2 N_VSS_MMN25<3>@4_s N_VSS_MMN25<3>@2_g N_VSS_MMN25<3>@2_s
+ N_VSS_MMN25<4>_b nfet_03v3 L=3e-07 W=1e-05 AD=2.6e-12 AS=2.6e-12 PD=1.052e-05
+ PS=1.052e-05 NRD=0.026 NRS=0.026 M=1 NF=1 PAR=1
XMMN25<3> N_VSS_MMN25<3>@3_s N_VSS_MMN25<3>_g N_VSS_MMN25<3>_s N_VSS_MMN25<4>_b
+ nfet_03v3 L=3e-07 W=1e-05 AD=2.6e-12 AS=2.6e-12 PD=1.052e-05 PS=1.052e-05
+ NRD=0.026 NRS=0.026 M=1 NF=1 PAR=1
XMMN25<2>@10 N_VSS_MMN25<3>@2_s N_VSS_MMN25<2>@10_g N_VSS_MMN25<2>@10_s
+ N_VSS_MMN25<4>_b nfet_03v3 L=3e-07 W=1e-05 AD=2.6e-12 AS=2.6e-12 PD=1.052e-05
+ PS=1.052e-05 NRD=0.026 NRS=0.026 M=1 NF=1 PAR=1
XMMN25<2>@9 N_VSS_MMN25<3>_s N_VSS_MMN25<2>@9_g N_VSS_MMN25<2>@9_s
+ N_VSS_MMN25<4>_b nfet_03v3 L=3e-07 W=1e-05 AD=2.6e-12 AS=2.6e-12 PD=1.052e-05
+ PS=1.052e-05 NRD=0.026 NRS=0.026 M=1 NF=1 PAR=1
XMMN25<2>@8 N_VSS_MMN25<2>@10_s N_VSS_MMN25<2>@8_g N_VSS_MMN25<2>@8_s
+ N_VSS_MMN25<4>_b nfet_03v3 L=3e-07 W=1e-05 AD=2.6e-12 AS=2.6e-12 PD=1.052e-05
+ PS=1.052e-05 NRD=0.026 NRS=0.026 M=1 NF=1 PAR=1
XMMN25<2>@7 N_VSS_MMN25<2>@9_s N_VSS_MMN25<2>@7_g N_VSS_MMN25<2>@7_s
+ N_VSS_MMN25<4>_b nfet_03v3 L=3e-07 W=1e-05 AD=2.6e-12 AS=2.6e-12 PD=1.052e-05
+ PS=1.052e-05 NRD=0.026 NRS=0.026 M=1 NF=1 PAR=1
XMMN25<2>@6 N_VSS_MMN25<2>@8_s N_VSS_MMN25<2>@6_g N_VSS_MMN25<2>@6_s
+ N_VSS_MMN25<4>_b nfet_03v3 L=3e-07 W=1e-05 AD=2.6e-12 AS=2.6e-12 PD=1.052e-05
+ PS=1.052e-05 NRD=0.026 NRS=0.026 M=1 NF=1 PAR=1
XMMN25<2>@5 N_VSS_MMN25<2>@7_s N_VSS_MMN25<2>@5_g N_VSS_MMN25<2>@5_s
+ N_VSS_MMN25<4>_b nfet_03v3 L=3e-07 W=1e-05 AD=2.6e-12 AS=2.6e-12 PD=1.052e-05
+ PS=1.052e-05 NRD=0.026 NRS=0.026 M=1 NF=1 PAR=1
XMMN25<2>@4 N_VSS_MMN25<2>@6_s N_VSS_MMN25<2>@4_g N_VSS_MMN25<2>@4_s
+ N_VSS_MMN25<4>_b nfet_03v3 L=3e-07 W=1e-05 AD=2.6e-12 AS=2.6e-12 PD=1.052e-05
+ PS=1.052e-05 NRD=0.026 NRS=0.026 M=1 NF=1 PAR=1
XMMN25<2>@3 N_VSS_MMN25<2>@5_s N_VSS_MMN25<2>@3_g N_VSS_MMN25<2>@3_s
+ N_VSS_MMN25<4>_b nfet_03v3 L=3e-07 W=1e-05 AD=4.4e-12 AS=2.6e-12 PD=2.088e-05
+ PS=1.052e-05 NRD=0.044 NRS=0.026 M=1 NF=1 PAR=1
XMMN25<2>@2 N_VSS_MMN25<2>@4_s N_VSS_MMN25<2>@2_g N_VSS_MMN25<2>@2_s
+ N_VSS_MMN25<4>_b nfet_03v3 L=3e-07 W=1e-05 AD=4.4e-12 AS=2.6e-12 PD=2.088e-05
+ PS=1.052e-05 NRD=0.044 NRS=0.026 M=1 NF=1 PAR=1
XMMN33 N_NET12_MMN33_d N_NET12_MMN33_g N_VSS_MMN33_s N_VSS_MMN25<4>_b nfet_03v3
+ L=1e-06 W=4e-06 AD=1.04e-12 AS=1.76e-12 PD=4.52e-06 PS=8.88e-06 NRD=0.065
+ NRS=0.11 M=1 NF=1 PAR=1
XMMN34 N_VTAILN_MMN34_d N_NET12_MMN34_g N_VSS_MMN34_s N_VSS_MMN25<4>_b nfet_03v3
+ L=1e-06 W=4e-06 AD=1.04e-12 AS=1.76e-12 PD=4.52e-06 PS=8.88e-06 NRD=0.065
+ NRS=0.11 M=1 NF=1 PAR=1
XMMN34@25 N_VTAILN_MMN34@25_d N_NET12_MMN34@25_g N_VSS_MMN34@25_s
+ N_VSS_MMN25<4>_b nfet_03v3 L=1e-06 W=4e-06 AD=1.04e-12 AS=1.76e-12 PD=4.52e-06
+ PS=8.88e-06 NRD=0.065 NRS=0.11 M=1 NF=1 PAR=1
XMMN30 N_NET8_MMN30_d N_NET8_MMN30_g N_NET12_MMN30_s N_VSS_MMN25<4>_b nfet_03v3
+ L=1e-06 W=2e-06 AD=8.8e-13 AS=5.2e-13 PD=4.88e-06 PS=2.52e-06 NRD=0.22
+ NRS=0.13 M=1 NF=1 PAR=1
XMMN30@10 N_NET8_MMN30@10_d N_NET8_MMN30@10_g N_NET12_MMN30@10_s
+ N_VSS_MMN25<4>_b nfet_03v3 L=1e-06 W=2e-06 AD=8.8e-13 AS=5.2e-13 PD=4.88e-06
+ PS=2.52e-06 NRD=0.22 NRS=0.13 M=1 NF=1 PAR=1
XMMN33@5 N_NET12_MMN33_d N_NET12_MMN33@5_g N_VSS_MMN33@5_s N_VSS_MMN25<4>_b
+ nfet_03v3 L=1e-06 W=4e-06 AD=1.04e-12 AS=1.04e-12 PD=4.52e-06 PS=4.52e-06
+ NRD=0.065 NRS=0.065 M=1 NF=1 PAR=1
XMMN34@24 N_VTAILN_MMN34_d N_NET12_MMN34@24_g N_VSS_MMN34@24_s N_VSS_MMN25<4>_b
+ nfet_03v3 L=1e-06 W=4e-06 AD=1.04e-12 AS=1.04e-12 PD=4.52e-06 PS=4.52e-06
+ NRD=0.065 NRS=0.065 M=1 NF=1 PAR=1
XMMN34@23 N_VTAILN_MMN34@25_d N_NET12_MMN34@23_g N_VSS_MMN34@23_s
+ N_VSS_MMN25<4>_b nfet_03v3 L=1e-06 W=4e-06 AD=1.04e-12 AS=1.04e-12 PD=4.52e-06
+ PS=4.52e-06 NRD=0.065 NRS=0.065 M=1 NF=1 PAR=1
XMMN30@9 N_NET8_MMN30@9_d N_NET8_MMN30@9_g N_NET12_MMN30_s N_VSS_MMN25<4>_b
+ nfet_03v3 L=1e-06 W=2e-06 AD=5.2e-13 AS=5.2e-13 PD=2.52e-06 PS=2.52e-06
+ NRD=0.13 NRS=0.13 M=1 NF=1 PAR=1
XMMN30@8 N_NET8_MMN30@8_d N_NET8_MMN30@8_g N_NET12_MMN30@10_s N_VSS_MMN25<4>_b
+ nfet_03v3 L=1e-06 W=2e-06 AD=5.2e-13 AS=5.2e-13 PD=2.52e-06 PS=2.52e-06
+ NRD=0.13 NRS=0.13 M=1 NF=1 PAR=1
XMMN33@4 N_NET12_MMN33@4_d N_NET12_MMN33@4_g N_VSS_MMN33@5_s N_VSS_MMN25<4>_b
+ nfet_03v3 L=1e-06 W=4e-06 AD=1.04e-12 AS=1.04e-12 PD=4.52e-06 PS=4.52e-06
+ NRD=0.065 NRS=0.065 M=1 NF=1 PAR=1
XMMN34@22 N_VTAILN_MMN34@22_d N_NET12_MMN34@22_g N_VSS_MMN34@24_s
+ N_VSS_MMN25<4>_b nfet_03v3 L=1e-06 W=4e-06 AD=1.04e-12 AS=1.04e-12 PD=4.52e-06
+ PS=4.52e-06 NRD=0.065 NRS=0.065 M=1 NF=1 PAR=1
XMMN34@21 N_VTAILN_MMN34@21_d N_NET12_MMN34@21_g N_VSS_MMN34@23_s
+ N_VSS_MMN25<4>_b nfet_03v3 L=1e-06 W=4e-06 AD=1.04e-12 AS=1.04e-12 PD=4.52e-06
+ PS=4.52e-06 NRD=0.065 NRS=0.065 M=1 NF=1 PAR=1
XMMN30@7 N_NET8_MMN30@9_d N_NET8_MMN30@7_g N_NET12_MMN30@7_s N_VSS_MMN25<4>_b
+ nfet_03v3 L=1e-06 W=2e-06 AD=5.2e-13 AS=5.2e-13 PD=2.52e-06 PS=2.52e-06
+ NRD=0.13 NRS=0.13 M=1 NF=1 PAR=1
XMMN30@6 N_NET8_MMN30@8_d N_NET8_MMN30@6_g N_NET12_MMN30@6_s N_VSS_MMN25<4>_b
+ nfet_03v3 L=1e-06 W=2e-06 AD=5.2e-13 AS=5.2e-13 PD=2.52e-06 PS=2.52e-06
+ NRD=0.13 NRS=0.13 M=1 NF=1 PAR=1
XMMN33@3 N_NET12_MMN33@4_d N_NET12_MMN33@3_g N_VSS_MMN33@3_s N_VSS_MMN25<4>_b
+ nfet_03v3 L=1e-06 W=4e-06 AD=1.04e-12 AS=1.04e-12 PD=4.52e-06 PS=4.52e-06
+ NRD=0.065 NRS=0.065 M=1 NF=1 PAR=1
XMMN34@20 N_VTAILN_MMN34@22_d N_NET12_MMN34@20_g N_VSS_MMN34@20_s
+ N_VSS_MMN25<4>_b nfet_03v3 L=1e-06 W=4e-06 AD=1.04e-12 AS=1.04e-12 PD=4.52e-06
+ PS=4.52e-06 NRD=0.065 NRS=0.065 M=1 NF=1 PAR=1
XMMN34@19 N_VTAILN_MMN34@21_d N_NET12_MMN34@19_g N_VSS_MMN34@19_s
+ N_VSS_MMN25<4>_b nfet_03v3 L=1e-06 W=4e-06 AD=1.04e-12 AS=1.04e-12 PD=4.52e-06
+ PS=4.52e-06 NRD=0.065 NRS=0.065 M=1 NF=1 PAR=1
XMMN30@5 N_NET8_MMN30@5_d N_NET8_MMN30@5_g N_NET12_MMN30@7_s N_VSS_MMN25<4>_b
+ nfet_03v3 L=1e-06 W=2e-06 AD=5.2e-13 AS=5.2e-13 PD=2.52e-06 PS=2.52e-06
+ NRD=0.13 NRS=0.13 M=1 NF=1 PAR=1
XMMN30@4 N_NET8_MMN30@4_d N_NET8_MMN30@4_g N_NET12_MMN30@6_s N_VSS_MMN25<4>_b
+ nfet_03v3 L=1e-06 W=2e-06 AD=5.2e-13 AS=5.2e-13 PD=2.52e-06 PS=2.52e-06
+ NRD=0.13 NRS=0.13 M=1 NF=1 PAR=1
XMMN33@2 N_NET12_MMN33@2_d N_NET12_MMN33@2_g N_VSS_MMN33@3_s N_VSS_MMN25<4>_b
+ nfet_03v3 L=1e-06 W=4e-06 AD=1.76e-12 AS=1.04e-12 PD=8.88e-06 PS=4.52e-06
+ NRD=0.11 NRS=0.065 M=1 NF=1 PAR=1
XMMN34@18 N_VTAILN_MMN34@18_d N_NET12_MMN34@18_g N_VSS_MMN34@20_s
+ N_VSS_MMN25<4>_b nfet_03v3 L=1e-06 W=4e-06 AD=1.76e-12 AS=1.04e-12 PD=8.88e-06
+ PS=4.52e-06 NRD=0.11 NRS=0.065 M=1 NF=1 PAR=1
XMMN34@17 N_VTAILN_MMN34@17_d N_NET12_MMN34@17_g N_VSS_MMN34@19_s
+ N_VSS_MMN25<4>_b nfet_03v3 L=1e-06 W=4e-06 AD=1.76e-12 AS=1.04e-12 PD=8.88e-06
+ PS=4.52e-06 NRD=0.11 NRS=0.065 M=1 NF=1 PAR=1
XMMN30@3 N_NET8_MMN30@5_d N_NET8_MMN30@3_g N_NET12_MMN30@3_s N_VSS_MMN25<4>_b
+ nfet_03v3 L=1e-06 W=2e-06 AD=5.2e-13 AS=8.8e-13 PD=2.52e-06 PS=4.88e-06
+ NRD=0.13 NRS=0.22 M=1 NF=1 PAR=1
XMMN30@2 N_NET8_MMN30@4_d N_NET8_MMN30@2_g N_NET12_MMN30@2_s N_VSS_MMN25<4>_b
+ nfet_03v3 L=1e-06 W=2e-06 AD=5.2e-13 AS=8.8e-13 PD=2.52e-06 PS=4.88e-06
+ NRD=0.13 NRS=0.22 M=1 NF=1 PAR=1
XMMN29 N_NET11_MMN29_d N_NET8_MMN29_g N_NET10_MMN29_s N_VSS_MMN25<4>_b nfet_03v3
+ L=1e-06 W=2.2e-07 AD=1.516e-13 AS=1.516e-13 PD=1.64e-06 PS=1.64e-06
+ NRD=3.13223 NRS=3.13223 M=1 NF=1 PAR=1
XMMN22 N_VSS_MMN22_d N_VSS_MMN22_g N_VSS_MMN22_s N_VSS_MMN25<4>_b nfet_03v3
+ L=1e-06 W=4e-06 AD=1.76e-12 AS=1.76e-12 PD=8.88e-06 PS=8.88e-06 NRD=0.11
+ NRS=0.11 M=1 NF=1 PAR=1
XMMN32 N_NET9_MMN32_d N_NET9_MMN32_g N_VSS_MMN32_s N_VSS_MMN25<4>_b nfet_03v3
+ L=1e-06 W=2e-06 AD=8.8e-13 AS=8.8e-13 PD=4.88e-06 PS=4.88e-06 NRD=0.22
+ NRS=0.22 M=1 NF=1 PAR=1
XMMN31 N_NET7_MMN31_d N_NET12_MMN31_g N_VSS_MMN31_s N_VSS_MMN25<4>_b nfet_03v3
+ L=1e-06 W=2e-06 AD=8.8e-13 AS=8.8e-13 PD=4.88e-06 PS=4.88e-06 NRD=0.22
+ NRS=0.22 M=1 NF=1 PAR=1
XMMN35 N_NET10_MMN35_d N_NET12_MMN35_g N_VSS_MMN35_s N_VSS_MMN25<4>_b nfet_03v3
+ L=1e-06 W=2e-06 AD=8.8e-13 AS=8.8e-13 PD=4.88e-06 PS=4.88e-06 NRD=0.22
+ NRS=0.22 M=1 NF=1 PAR=1
XMMN22@2 N_VSS_MMN22@2_d N_VSS_MMN22@2_g N_VSS_MMN22@2_s N_VSS_MMN25<4>_b
+ nfet_03v3 L=1e-06 W=5e-06 AD=2.2e-12 AS=2.2e-12 PD=1.088e-05 PS=1.088e-05
+ NRD=0.088 NRS=0.088 M=1 NF=1 PAR=1
XMMN34@16 N_VTAILN_MMN34@16_d N_NET12_MMN34@16_g N_VSS_MMN34@16_s
+ N_VSS_MMN25<4>_b nfet_03v3 L=1e-06 W=4e-06 AD=1.04e-12 AS=1.76e-12 PD=4.52e-06
+ PS=8.88e-06 NRD=0.065 NRS=0.11 M=1 NF=1 PAR=1
XMMN34@15 N_VTAILN_MMN34@15_d N_NET12_MMN34@15_g N_VSS_MMN34@15_s
+ N_VSS_MMN25<4>_b nfet_03v3 L=1e-06 W=4e-06 AD=1.04e-12 AS=1.76e-12 PD=4.52e-06
+ PS=8.88e-06 NRD=0.065 NRS=0.11 M=1 NF=1 PAR=1
XMMN34@14 N_VTAILN_MMN34@14_d N_NET12_MMN34@14_g N_VSS_MMN34@14_s
+ N_VSS_MMN25<4>_b nfet_03v3 L=1e-06 W=4e-06 AD=1.04e-12 AS=1.76e-12 PD=4.52e-06
+ PS=8.88e-06 NRD=0.065 NRS=0.11 M=1 NF=1 PAR=1
XMMN27 N_IABP_MMN27_d N_NET8_MMN27_g N_NET7_MMN27_s N_VSS_MMN25<4>_b nfet_03v3
+ L=1e-06 W=2e-06 AD=5.2e-13 AS=8.8e-13 PD=2.52e-06 PS=4.88e-06 NRD=0.13
+ NRS=0.22 M=1 NF=1 PAR=1
XMMN28 N_IABN_MMN28_d N_IABN_MMN28_g N_NET9_MMN28_s N_VSS_MMN25<4>_b nfet_03v3
+ L=1e-06 W=2e-06 AD=8.8e-13 AS=5.2e-13 PD=4.88e-06 PS=2.52e-06 NRD=0.22
+ NRS=0.13 M=1 NF=1 PAR=1
XMMN34@13 N_VTAILN_MMN34@16_d N_NET12_MMN34@13_g N_VSS_MMN34@13_s
+ N_VSS_MMN25<4>_b nfet_03v3 L=1e-06 W=4e-06 AD=1.04e-12 AS=1.04e-12 PD=4.52e-06
+ PS=4.52e-06 NRD=0.065 NRS=0.065 M=1 NF=1 PAR=1
XMMN34@12 N_VTAILN_MMN34@15_d N_NET12_MMN34@12_g N_VSS_MMN34@12_s
+ N_VSS_MMN25<4>_b nfet_03v3 L=1e-06 W=4e-06 AD=1.04e-12 AS=1.04e-12 PD=4.52e-06
+ PS=4.52e-06 NRD=0.065 NRS=0.065 M=1 NF=1 PAR=1
XMMN34@11 N_VTAILN_MMN34@14_d N_NET12_MMN34@11_g N_VSS_MMN34@11_s
+ N_VSS_MMN25<4>_b nfet_03v3 L=1e-06 W=4e-06 AD=1.04e-12 AS=1.04e-12 PD=4.52e-06
+ PS=4.52e-06 NRD=0.065 NRS=0.065 M=1 NF=1 PAR=1
XMMN27@5 N_IABP_MMN27_d N_NET8_MMN27@5_g N_NET7_MMN27@5_s N_VSS_MMN25<4>_b
+ nfet_03v3 L=1e-06 W=2e-06 AD=5.2e-13 AS=5.2e-13 PD=2.52e-06 PS=2.52e-06
+ NRD=0.13 NRS=0.13 M=1 NF=1 PAR=1
XMMN28@5 N_IABN_MMN28@5_d N_IABN_MMN28@5_g N_NET9_MMN28_s N_VSS_MMN25<4>_b
+ nfet_03v3 L=1e-06 W=2e-06 AD=5.2e-13 AS=5.2e-13 PD=2.52e-06 PS=2.52e-06
+ NRD=0.13 NRS=0.13 M=1 NF=1 PAR=1
XMMN34@10 N_VTAILN_MMN34@10_d N_NET12_MMN34@10_g N_VSS_MMN34@13_s
+ N_VSS_MMN25<4>_b nfet_03v3 L=1e-06 W=4e-06 AD=1.04e-12 AS=1.04e-12 PD=4.52e-06
+ PS=4.52e-06 NRD=0.065 NRS=0.065 M=1 NF=1 PAR=1
XMMN34@9 N_VTAILN_MMN34@9_d N_NET12_MMN34@9_g N_VSS_MMN34@12_s N_VSS_MMN25<4>_b
+ nfet_03v3 L=1e-06 W=4e-06 AD=1.04e-12 AS=1.04e-12 PD=4.52e-06 PS=4.52e-06
+ NRD=0.065 NRS=0.065 M=1 NF=1 PAR=1
XMMN34@8 N_VTAILN_MMN34@8_d N_NET12_MMN34@8_g N_VSS_MMN34@11_s N_VSS_MMN25<4>_b
+ nfet_03v3 L=1e-06 W=4e-06 AD=1.04e-12 AS=1.04e-12 PD=4.52e-06 PS=4.52e-06
+ NRD=0.065 NRS=0.065 M=1 NF=1 PAR=1
XMMN27@4 N_IABP_MMN27@4_d N_NET8_MMN27@4_g N_NET7_MMN27@5_s N_VSS_MMN25<4>_b
+ nfet_03v3 L=1e-06 W=2e-06 AD=5.2e-13 AS=5.2e-13 PD=2.52e-06 PS=2.52e-06
+ NRD=0.13 NRS=0.13 M=1 NF=1 PAR=1
XMMN28@4 N_IABN_MMN28@5_d N_IABN_MMN28@4_g N_NET9_MMN28@4_s N_VSS_MMN25<4>_b
+ nfet_03v3 L=1e-06 W=2e-06 AD=5.2e-13 AS=5.2e-13 PD=2.52e-06 PS=2.52e-06
+ NRD=0.13 NRS=0.13 M=1 NF=1 PAR=1
XMMN34@7 N_VTAILN_MMN34@10_d N_NET12_MMN34@7_g N_VSS_MMN34@7_s N_VSS_MMN25<4>_b
+ nfet_03v3 L=1e-06 W=4e-06 AD=1.04e-12 AS=1.04e-12 PD=4.52e-06 PS=4.52e-06
+ NRD=0.065 NRS=0.065 M=1 NF=1 PAR=1
XMMN34@6 N_VTAILN_MMN34@9_d N_NET12_MMN34@6_g N_VSS_MMN34@6_s N_VSS_MMN25<4>_b
+ nfet_03v3 L=1e-06 W=4e-06 AD=1.04e-12 AS=1.04e-12 PD=4.52e-06 PS=4.52e-06
+ NRD=0.065 NRS=0.065 M=1 NF=1 PAR=1
XMMN34@5 N_VTAILN_MMN34@8_d N_NET12_MMN34@5_g N_VSS_MMN34@5_s N_VSS_MMN25<4>_b
+ nfet_03v3 L=1e-06 W=4e-06 AD=1.04e-12 AS=1.04e-12 PD=4.52e-06 PS=4.52e-06
+ NRD=0.065 NRS=0.065 M=1 NF=1 PAR=1
XMMN27@3 N_IABP_MMN27@4_d N_NET8_MMN27@3_g N_NET7_MMN27@3_s N_VSS_MMN25<4>_b
+ nfet_03v3 L=1e-06 W=2e-06 AD=5.2e-13 AS=5.2e-13 PD=2.52e-06 PS=2.52e-06
+ NRD=0.13 NRS=0.13 M=1 NF=1 PAR=1
XMMN28@3 N_IABN_MMN28@3_d N_IABN_MMN28@3_g N_NET9_MMN28@4_s N_VSS_MMN25<4>_b
+ nfet_03v3 L=1e-06 W=2e-06 AD=5.2e-13 AS=5.2e-13 PD=2.52e-06 PS=2.52e-06
+ NRD=0.13 NRS=0.13 M=1 NF=1 PAR=1
XMMN34@4 N_VTAILN_MMN34@4_d N_NET12_MMN34@4_g N_VSS_MMN34@7_s N_VSS_MMN25<4>_b
+ nfet_03v3 L=1e-06 W=4e-06 AD=1.76e-12 AS=1.04e-12 PD=8.88e-06 PS=4.52e-06
+ NRD=0.11 NRS=0.065 M=1 NF=1 PAR=1
XMMN34@3 N_VTAILN_MMN34@3_d N_NET12_MMN34@3_g N_VSS_MMN34@6_s N_VSS_MMN25<4>_b
+ nfet_03v3 L=1e-06 W=4e-06 AD=1.76e-12 AS=1.04e-12 PD=8.88e-06 PS=4.52e-06
+ NRD=0.11 NRS=0.065 M=1 NF=1 PAR=1
XMMN34@2 N_VTAILN_MMN34@2_d N_NET12_MMN34@2_g N_VSS_MMN34@5_s N_VSS_MMN25<4>_b
+ nfet_03v3 L=1e-06 W=4e-06 AD=1.76e-12 AS=1.04e-12 PD=8.88e-06 PS=4.52e-06
+ NRD=0.11 NRS=0.065 M=1 NF=1 PAR=1
XMMN27@2 N_IABP_MMN27@2_d N_NET8_MMN27@2_g N_NET7_MMN27@3_s N_VSS_MMN25<4>_b
+ nfet_03v3 L=1e-06 W=2e-06 AD=8.8e-13 AS=5.2e-13 PD=4.88e-06 PS=2.52e-06
+ NRD=0.22 NRS=0.13 M=1 NF=1 PAR=1
XMMN28@2 N_IABN_MMN28@3_d N_IABN_MMN28@2_g N_NET9_MMN28@2_s N_VSS_MMN25<4>_b
+ nfet_03v3 L=1e-06 W=2e-06 AD=5.2e-13 AS=8.8e-13 PD=2.52e-06 PS=4.88e-06
+ NRD=0.13 NRS=0.22 M=1 NF=1 PAR=1
XMMN25<2> N_VSS_MMN25<2>_d N_VSS_MMN25<2>_g N_VSS_MMN25<2>_s N_VSS_MMN25<4>_b
+ nfet_03v3 L=3e-07 W=1e-05 AD=2.6e-12 AS=4.4e-12 PD=1.052e-05 PS=2.088e-05
+ NRD=0.026 NRS=0.044 M=1 NF=1 PAR=1
XMMN25<1>@10 N_VSS_MMN25<1>@10_d N_VSS_MMN25<1>@10_g N_VSS_MMN25<1>@10_s
+ N_VSS_MMN25<4>_b nfet_03v3 L=3e-07 W=1e-05 AD=2.6e-12 AS=4.4e-12 PD=1.052e-05
+ PS=2.088e-05 NRD=0.026 NRS=0.044 M=1 NF=1 PAR=1
XMMN25<1>@9 N_VSS_MMN25<2>_s N_VSS_MMN25<1>@9_g N_VSS_MMN25<1>@9_s
+ N_VSS_MMN25<4>_b nfet_03v3 L=3e-07 W=1e-05 AD=2.6e-12 AS=2.6e-12 PD=1.052e-05
+ PS=1.052e-05 NRD=0.026 NRS=0.026 M=1 NF=1 PAR=1
XMMN25<1>@8 N_VSS_MMN25<1>@10_s N_VSS_MMN25<1>@8_g N_VSS_MMN25<1>@8_s
+ N_VSS_MMN25<4>_b nfet_03v3 L=3e-07 W=1e-05 AD=2.6e-12 AS=2.6e-12 PD=1.052e-05
+ PS=1.052e-05 NRD=0.026 NRS=0.026 M=1 NF=1 PAR=1
XMMN25<1>@7 N_VSS_MMN25<1>@9_s N_VSS_MMN25<1>@7_g N_VSS_MMN25<1>@7_s
+ N_VSS_MMN25<4>_b nfet_03v3 L=3e-07 W=1e-05 AD=2.6e-12 AS=2.6e-12 PD=1.052e-05
+ PS=1.052e-05 NRD=0.026 NRS=0.026 M=1 NF=1 PAR=1
XMMN25<1>@6 N_VSS_MMN25<1>@8_s N_VSS_MMN25<1>@6_g N_VSS_MMN25<1>@6_s
+ N_VSS_MMN25<4>_b nfet_03v3 L=3e-07 W=1e-05 AD=2.6e-12 AS=2.6e-12 PD=1.052e-05
+ PS=1.052e-05 NRD=0.026 NRS=0.026 M=1 NF=1 PAR=1
XMMN25<1>@5 N_VSS_MMN25<1>@7_s N_VSS_MMN25<1>@5_g N_VSS_MMN25<1>@5_s
+ N_VSS_MMN25<4>_b nfet_03v3 L=3e-07 W=1e-05 AD=2.6e-12 AS=2.6e-12 PD=1.052e-05
+ PS=1.052e-05 NRD=0.026 NRS=0.026 M=1 NF=1 PAR=1
XMMN25<1>@4 N_VSS_MMN25<1>@6_s N_VSS_MMN25<1>@4_g N_VSS_MMN25<1>@4_s
+ N_VSS_MMN25<4>_b nfet_03v3 L=3e-07 W=1e-05 AD=2.6e-12 AS=2.6e-12 PD=1.052e-05
+ PS=1.052e-05 NRD=0.026 NRS=0.026 M=1 NF=1 PAR=1
XMMN25<1>@3 N_VSS_MMN25<1>@5_s N_VSS_MMN25<1>@3_g N_VSS_MMN25<1>@3_s
+ N_VSS_MMN25<4>_b nfet_03v3 L=3e-07 W=1e-05 AD=2.6e-12 AS=2.6e-12 PD=1.052e-05
+ PS=1.052e-05 NRD=0.026 NRS=0.026 M=1 NF=1 PAR=1
XMMN25<1>@2 N_VSS_MMN25<1>@4_s N_VSS_MMN25<1>@2_g N_VSS_MMN25<1>@2_s
+ N_VSS_MMN25<4>_b nfet_03v3 L=3e-07 W=1e-05 AD=2.6e-12 AS=2.6e-12 PD=1.052e-05
+ PS=1.052e-05 NRD=0.026 NRS=0.026 M=1 NF=1 PAR=1
XMMN25<1> N_VSS_MMN25<1>@3_s N_VSS_MMN25<1>_g N_VSS_MMN25<1>_s N_VSS_MMN25<4>_b
+ nfet_03v3 L=3e-07 W=1e-05 AD=2.6e-12 AS=2.6e-12 PD=1.052e-05 PS=1.052e-05
+ NRD=0.026 NRS=0.026 M=1 NF=1 PAR=1
XMMN25<0>@10 N_VSS_MMN25<1>@2_s N_VSS_MMN25<0>@10_g N_VSS_MMN25<0>@10_s
+ N_VSS_MMN25<4>_b nfet_03v3 L=3e-07 W=1e-05 AD=2.6e-12 AS=2.6e-12 PD=1.052e-05
+ PS=1.052e-05 NRD=0.026 NRS=0.026 M=1 NF=1 PAR=1
XMMN25<0>@9 N_VSS_MMN25<1>_s N_VSS_MMN25<0>@9_g N_VSS_MMN25<0>@9_s
+ N_VSS_MMN25<4>_b nfet_03v3 L=3e-07 W=1e-05 AD=2.6e-12 AS=2.6e-12 PD=1.052e-05
+ PS=1.052e-05 NRD=0.026 NRS=0.026 M=1 NF=1 PAR=1
XMMN25<0>@8 N_VSS_MMN25<0>@10_s N_VSS_MMN25<0>@8_g N_VSS_MMN25<0>@8_s
+ N_VSS_MMN25<4>_b nfet_03v3 L=3e-07 W=1e-05 AD=2.6e-12 AS=2.6e-12 PD=1.052e-05
+ PS=1.052e-05 NRD=0.026 NRS=0.026 M=1 NF=1 PAR=1
XMMN25<0>@7 N_VSS_MMN25<0>@9_s N_VSS_MMN25<0>@7_g N_VSS_MMN25<0>@7_s
+ N_VSS_MMN25<4>_b nfet_03v3 L=3e-07 W=1e-05 AD=2.6e-12 AS=2.6e-12 PD=1.052e-05
+ PS=1.052e-05 NRD=0.026 NRS=0.026 M=1 NF=1 PAR=1
XMMN25<0>@6 N_VSS_MMN25<0>@8_s N_VSS_MMN25<0>@6_g N_VSS_MMN25<0>@6_s
+ N_VSS_MMN25<4>_b nfet_03v3 L=3e-07 W=1e-05 AD=2.6e-12 AS=2.6e-12 PD=1.052e-05
+ PS=1.052e-05 NRD=0.026 NRS=0.026 M=1 NF=1 PAR=1
XMMN25<0>@5 N_VSS_MMN25<0>@7_s N_VSS_MMN25<0>@5_g N_VSS_MMN25<0>@5_s
+ N_VSS_MMN25<4>_b nfet_03v3 L=3e-07 W=1e-05 AD=2.6e-12 AS=2.6e-12 PD=1.052e-05
+ PS=1.052e-05 NRD=0.026 NRS=0.026 M=1 NF=1 PAR=1
XMMN25<0>@4 N_VSS_MMN25<0>@6_s N_VSS_MMN25<0>@4_g N_VSS_MMN25<0>@4_s
+ N_VSS_MMN25<4>_b nfet_03v3 L=3e-07 W=1e-05 AD=2.6e-12 AS=2.6e-12 PD=1.052e-05
+ PS=1.052e-05 NRD=0.026 NRS=0.026 M=1 NF=1 PAR=1
XMMN25<0>@3 N_VSS_MMN25<0>@5_s N_VSS_MMN25<0>@3_g N_VSS_MMN25<0>@3_s
+ N_VSS_MMN25<4>_b nfet_03v3 L=3e-07 W=1e-05 AD=4.4e-12 AS=2.6e-12 PD=2.088e-05
+ PS=1.052e-05 NRD=0.044 NRS=0.026 M=1 NF=1 PAR=1
XMMN25<0>@2 N_VSS_MMN25<0>@4_s N_VSS_MMN25<0>@2_g N_VSS_MMN25<0>@2_s
+ N_VSS_MMN25<4>_b nfet_03v3 L=3e-07 W=1e-05 AD=4.4e-12 AS=2.6e-12 PD=2.088e-05
+ PS=1.052e-05 NRD=0.044 NRS=0.026 M=1 NF=1 PAR=1
XMMN43<3> N_NET4_MMN43<3>_d N_VIN2_MMN43<3>_g N_VTAILN_MMN43<3>_s
+ N_VSS_MMN25<4>_b nfet_03v3 L=3e-07 W=1e-05 AD=4.4e-12 AS=2.6e-12 PD=2.088e-05
+ PS=1.052e-05 NRD=0.044 NRS=0.026 M=1 NF=1 PAR=1
XMMN42<3> N_NET5_MMN42<3>_d N_VIN1_MMN42<3>_g N_VTAILN_MMN42<3>_s
+ N_VSS_MMN25<4>_b nfet_03v3 L=3e-07 W=1e-05 AD=4.4e-12 AS=2.6e-12 PD=2.088e-05
+ PS=1.052e-05 NRD=0.044 NRS=0.026 M=1 NF=1 PAR=1
XMMN43<2>@10 N_NET4_MMN43<2>@10_d N_VIN2_MMN43<2>@10_g N_VTAILN_MMN43<3>_s
+ N_VSS_MMN25<4>_b nfet_03v3 L=3e-07 W=1e-05 AD=2.6e-12 AS=2.6e-12 PD=1.052e-05
+ PS=1.052e-05 NRD=0.026 NRS=0.026 M=1 NF=1 PAR=1
XMMN42<2>@10 N_NET5_MMN42<2>@10_d N_VIN1_MMN42<2>@10_g N_VTAILN_MMN42<3>_s
+ N_VSS_MMN25<4>_b nfet_03v3 L=3e-07 W=1e-05 AD=2.6e-12 AS=2.6e-12 PD=1.052e-05
+ PS=1.052e-05 NRD=0.026 NRS=0.026 M=1 NF=1 PAR=1
XMMN43<2>@9 N_NET4_MMN43<2>@10_d N_VIN2_MMN43<2>@9_g N_VTAILN_MMN43<2>@9_s
+ N_VSS_MMN25<4>_b nfet_03v3 L=3e-07 W=1e-05 AD=2.6e-12 AS=2.6e-12 PD=1.052e-05
+ PS=1.052e-05 NRD=0.026 NRS=0.026 M=1 NF=1 PAR=1
XMMN42<2>@9 N_NET5_MMN42<2>@10_d N_VIN1_MMN42<2>@9_g N_VTAILN_MMN42<2>@9_s
+ N_VSS_MMN25<4>_b nfet_03v3 L=3e-07 W=1e-05 AD=2.6e-12 AS=2.6e-12 PD=1.052e-05
+ PS=1.052e-05 NRD=0.026 NRS=0.026 M=1 NF=1 PAR=1
XMMN43<2>@8 N_NET4_MMN43<2>@8_d N_VIN2_MMN43<2>@8_g N_VTAILN_MMN43<2>@9_s
+ N_VSS_MMN25<4>_b nfet_03v3 L=3e-07 W=1e-05 AD=2.6e-12 AS=2.6e-12 PD=1.052e-05
+ PS=1.052e-05 NRD=0.026 NRS=0.026 M=1 NF=1 PAR=1
XMMN42<2>@8 N_NET5_MMN42<2>@8_d N_VIN1_MMN42<2>@8_g N_VTAILN_MMN42<2>@9_s
+ N_VSS_MMN25<4>_b nfet_03v3 L=3e-07 W=1e-05 AD=2.6e-12 AS=2.6e-12 PD=1.052e-05
+ PS=1.052e-05 NRD=0.026 NRS=0.026 M=1 NF=1 PAR=1
XMMN43<2>@7 N_NET4_MMN43<2>@8_d N_VIN2_MMN43<2>@7_g N_VTAILN_MMN43<2>@7_s
+ N_VSS_MMN25<4>_b nfet_03v3 L=3e-07 W=1e-05 AD=2.6e-12 AS=2.6e-12 PD=1.052e-05
+ PS=1.052e-05 NRD=0.026 NRS=0.026 M=1 NF=1 PAR=1
XMMN42<2>@7 N_NET5_MMN42<2>@8_d N_VIN1_MMN42<2>@7_g N_VTAILN_MMN42<2>@7_s
+ N_VSS_MMN25<4>_b nfet_03v3 L=3e-07 W=1e-05 AD=2.6e-12 AS=2.6e-12 PD=1.052e-05
+ PS=1.052e-05 NRD=0.026 NRS=0.026 M=1 NF=1 PAR=1
XMMN43<2>@6 N_NET4_MMN43<2>@6_d N_VIN2_MMN43<2>@6_g N_VTAILN_MMN43<2>@7_s
+ N_VSS_MMN25<4>_b nfet_03v3 L=3e-07 W=1e-05 AD=2.6e-12 AS=2.6e-12 PD=1.052e-05
+ PS=1.052e-05 NRD=0.026 NRS=0.026 M=1 NF=1 PAR=1
XMMN42<2>@6 N_NET5_MMN42<2>@6_d N_VIN1_MMN42<2>@6_g N_VTAILN_MMN42<2>@7_s
+ N_VSS_MMN25<4>_b nfet_03v3 L=3e-07 W=1e-05 AD=2.6e-12 AS=2.6e-12 PD=1.052e-05
+ PS=1.052e-05 NRD=0.026 NRS=0.026 M=1 NF=1 PAR=1
XMMN43<2>@5 N_NET4_MMN43<2>@6_d N_VIN2_MMN43<2>@5_g N_VTAILN_MMN43<2>@5_s
+ N_VSS_MMN25<4>_b nfet_03v3 L=3e-07 W=1e-05 AD=2.6e-12 AS=2.6e-12 PD=1.052e-05
+ PS=1.052e-05 NRD=0.026 NRS=0.026 M=1 NF=1 PAR=1
XMMN42<2>@5 N_NET5_MMN42<2>@6_d N_VIN1_MMN42<2>@5_g N_VTAILN_MMN42<2>@5_s
+ N_VSS_MMN25<4>_b nfet_03v3 L=3e-07 W=1e-05 AD=2.6e-12 AS=2.6e-12 PD=1.052e-05
+ PS=1.052e-05 NRD=0.026 NRS=0.026 M=1 NF=1 PAR=1
XMMN43<2>@4 N_NET4_MMN43<2>@4_d N_VIN2_MMN43<2>@4_g N_VTAILN_MMN43<2>@5_s
+ N_VSS_MMN25<4>_b nfet_03v3 L=3e-07 W=1e-05 AD=2.6e-12 AS=2.6e-12 PD=1.052e-05
+ PS=1.052e-05 NRD=0.026 NRS=0.026 M=1 NF=1 PAR=1
XMMN42<2>@4 N_NET5_MMN42<2>@4_d N_VIN1_MMN42<2>@4_g N_VTAILN_MMN42<2>@5_s
+ N_VSS_MMN25<4>_b nfet_03v3 L=3e-07 W=1e-05 AD=2.6e-12 AS=2.6e-12 PD=1.052e-05
+ PS=1.052e-05 NRD=0.026 NRS=0.026 M=1 NF=1 PAR=1
XMMN43<2>@3 N_NET4_MMN43<2>@4_d N_VIN2_MMN43<2>@3_g N_VTAILN_MMN43<2>@3_s
+ N_VSS_MMN25<4>_b nfet_03v3 L=3e-07 W=1e-05 AD=2.6e-12 AS=2.6e-12 PD=1.052e-05
+ PS=1.052e-05 NRD=0.026 NRS=0.026 M=1 NF=1 PAR=1
XMMN42<2>@3 N_NET5_MMN42<2>@4_d N_VIN1_MMN42<2>@3_g N_VTAILN_MMN42<2>@3_s
+ N_VSS_MMN25<4>_b nfet_03v3 L=3e-07 W=1e-05 AD=2.6e-12 AS=2.6e-12 PD=1.052e-05
+ PS=1.052e-05 NRD=0.026 NRS=0.026 M=1 NF=1 PAR=1
XMMN43<2>@2 N_NET4_MMN43<2>@2_d N_VIN2_MMN43<2>@2_g N_VTAILN_MMN43<2>@3_s
+ N_VSS_MMN25<4>_b nfet_03v3 L=3e-07 W=1e-05 AD=4.4e-12 AS=2.6e-12 PD=2.088e-05
+ PS=1.052e-05 NRD=0.044 NRS=0.026 M=1 NF=1 PAR=1
XMMN42<2>@2 N_NET5_MMN42<2>@2_d N_VIN1_MMN42<2>@2_g N_VTAILN_MMN42<2>@3_s
+ N_VSS_MMN25<4>_b nfet_03v3 L=3e-07 W=1e-05 AD=4.4e-12 AS=2.6e-12 PD=2.088e-05
+ PS=1.052e-05 NRD=0.044 NRS=0.026 M=1 NF=1 PAR=1
XMMN42<2> N_NET5_MMN42<2>_d N_VIN1_MMN42<2>_g N_VTAILN_MMN42<2>_s
+ N_VSS_MMN25<4>_b nfet_03v3 L=3e-07 W=1e-05 AD=4.4e-12 AS=2.6e-12 PD=2.088e-05
+ PS=1.052e-05 NRD=0.044 NRS=0.026 M=1 NF=1 PAR=1
XMMN43<2> N_NET4_MMN43<2>_d N_VIN2_MMN43<2>_g N_VTAILN_MMN43<2>_s
+ N_VSS_MMN25<4>_b nfet_03v3 L=3e-07 W=1e-05 AD=4.4e-12 AS=2.6e-12 PD=2.088e-05
+ PS=1.052e-05 NRD=0.044 NRS=0.026 M=1 NF=1 PAR=1
XMMN42<1>@10 N_NET5_MMN42<1>@10_d N_VIN1_MMN42<1>@10_g N_VTAILN_MMN42<2>_s
+ N_VSS_MMN25<4>_b nfet_03v3 L=3e-07 W=1e-05 AD=2.6e-12 AS=2.6e-12 PD=1.052e-05
+ PS=1.052e-05 NRD=0.026 NRS=0.026 M=1 NF=1 PAR=1
XMMN43<1>@10 N_NET4_MMN43<1>@10_d N_VIN2_MMN43<1>@10_g N_VTAILN_MMN43<2>_s
+ N_VSS_MMN25<4>_b nfet_03v3 L=3e-07 W=1e-05 AD=2.6e-12 AS=2.6e-12 PD=1.052e-05
+ PS=1.052e-05 NRD=0.026 NRS=0.026 M=1 NF=1 PAR=1
XMMN42<1>@9 N_NET5_MMN42<1>@10_d N_VIN1_MMN42<1>@9_g N_VTAILN_MMN42<1>@9_s
+ N_VSS_MMN25<4>_b nfet_03v3 L=3e-07 W=1e-05 AD=2.6e-12 AS=2.6e-12 PD=1.052e-05
+ PS=1.052e-05 NRD=0.026 NRS=0.026 M=1 NF=1 PAR=1
XMMN43<1>@9 N_NET4_MMN43<1>@10_d N_VIN2_MMN43<1>@9_g N_VTAILN_MMN43<1>@9_s
+ N_VSS_MMN25<4>_b nfet_03v3 L=3e-07 W=1e-05 AD=2.6e-12 AS=2.6e-12 PD=1.052e-05
+ PS=1.052e-05 NRD=0.026 NRS=0.026 M=1 NF=1 PAR=1
XMMN42<1>@8 N_NET5_MMN42<1>@8_d N_VIN1_MMN42<1>@8_g N_VTAILN_MMN42<1>@9_s
+ N_VSS_MMN25<4>_b nfet_03v3 L=3e-07 W=1e-05 AD=2.6e-12 AS=2.6e-12 PD=1.052e-05
+ PS=1.052e-05 NRD=0.026 NRS=0.026 M=1 NF=1 PAR=1
XMMN43<1>@8 N_NET4_MMN43<1>@8_d N_VIN2_MMN43<1>@8_g N_VTAILN_MMN43<1>@9_s
+ N_VSS_MMN25<4>_b nfet_03v3 L=3e-07 W=1e-05 AD=2.6e-12 AS=2.6e-12 PD=1.052e-05
+ PS=1.052e-05 NRD=0.026 NRS=0.026 M=1 NF=1 PAR=1
XMMN42<1>@7 N_NET5_MMN42<1>@8_d N_VIN1_MMN42<1>@7_g N_VTAILN_MMN42<1>@7_s
+ N_VSS_MMN25<4>_b nfet_03v3 L=3e-07 W=1e-05 AD=2.6e-12 AS=2.6e-12 PD=1.052e-05
+ PS=1.052e-05 NRD=0.026 NRS=0.026 M=1 NF=1 PAR=1
XMMN43<1>@7 N_NET4_MMN43<1>@8_d N_VIN2_MMN43<1>@7_g N_VTAILN_MMN43<1>@7_s
+ N_VSS_MMN25<4>_b nfet_03v3 L=3e-07 W=1e-05 AD=2.6e-12 AS=2.6e-12 PD=1.052e-05
+ PS=1.052e-05 NRD=0.026 NRS=0.026 M=1 NF=1 PAR=1
XMMN42<1>@6 N_NET5_MMN42<1>@6_d N_VIN1_MMN42<1>@6_g N_VTAILN_MMN42<1>@7_s
+ N_VSS_MMN25<4>_b nfet_03v3 L=3e-07 W=1e-05 AD=2.6e-12 AS=2.6e-12 PD=1.052e-05
+ PS=1.052e-05 NRD=0.026 NRS=0.026 M=1 NF=1 PAR=1
XMMN43<1>@6 N_NET4_MMN43<1>@6_d N_VIN2_MMN43<1>@6_g N_VTAILN_MMN43<1>@7_s
+ N_VSS_MMN25<4>_b nfet_03v3 L=3e-07 W=1e-05 AD=2.6e-12 AS=2.6e-12 PD=1.052e-05
+ PS=1.052e-05 NRD=0.026 NRS=0.026 M=1 NF=1 PAR=1
XMMN42<1>@5 N_NET5_MMN42<1>@6_d N_VIN1_MMN42<1>@5_g N_VTAILN_MMN42<1>@5_s
+ N_VSS_MMN25<4>_b nfet_03v3 L=3e-07 W=1e-05 AD=2.6e-12 AS=2.6e-12 PD=1.052e-05
+ PS=1.052e-05 NRD=0.026 NRS=0.026 M=1 NF=1 PAR=1
XMMN43<1>@5 N_NET4_MMN43<1>@6_d N_VIN2_MMN43<1>@5_g N_VTAILN_MMN43<1>@5_s
+ N_VSS_MMN25<4>_b nfet_03v3 L=3e-07 W=1e-05 AD=2.6e-12 AS=2.6e-12 PD=1.052e-05
+ PS=1.052e-05 NRD=0.026 NRS=0.026 M=1 NF=1 PAR=1
XMMN42<1>@4 N_NET5_MMN42<1>@4_d N_VIN1_MMN42<1>@4_g N_VTAILN_MMN42<1>@5_s
+ N_VSS_MMN25<4>_b nfet_03v3 L=3e-07 W=1e-05 AD=2.6e-12 AS=2.6e-12 PD=1.052e-05
+ PS=1.052e-05 NRD=0.026 NRS=0.026 M=1 NF=1 PAR=1
XMMN43<1>@4 N_NET4_MMN43<1>@4_d N_VIN2_MMN43<1>@4_g N_VTAILN_MMN43<1>@5_s
+ N_VSS_MMN25<4>_b nfet_03v3 L=3e-07 W=1e-05 AD=2.6e-12 AS=2.6e-12 PD=1.052e-05
+ PS=1.052e-05 NRD=0.026 NRS=0.026 M=1 NF=1 PAR=1
XMMN42<1>@3 N_NET5_MMN42<1>@4_d N_VIN1_MMN42<1>@3_g N_VTAILN_MMN42<1>@3_s
+ N_VSS_MMN25<4>_b nfet_03v3 L=3e-07 W=1e-05 AD=2.6e-12 AS=2.6e-12 PD=1.052e-05
+ PS=1.052e-05 NRD=0.026 NRS=0.026 M=1 NF=1 PAR=1
XMMN43<1>@3 N_NET4_MMN43<1>@4_d N_VIN2_MMN43<1>@3_g N_VTAILN_MMN43<1>@3_s
+ N_VSS_MMN25<4>_b nfet_03v3 L=3e-07 W=1e-05 AD=2.6e-12 AS=2.6e-12 PD=1.052e-05
+ PS=1.052e-05 NRD=0.026 NRS=0.026 M=1 NF=1 PAR=1
XMMN42<1>@2 N_NET5_MMN42<1>@2_d N_VIN1_MMN42<1>@2_g N_VTAILN_MMN42<1>@3_s
+ N_VSS_MMN25<4>_b nfet_03v3 L=3e-07 W=1e-05 AD=4.4e-12 AS=2.6e-12 PD=2.088e-05
+ PS=1.052e-05 NRD=0.044 NRS=0.026 M=1 NF=1 PAR=1
XMMN43<1>@2 N_NET4_MMN43<1>@2_d N_VIN2_MMN43<1>@2_g N_VTAILN_MMN43<1>@3_s
+ N_VSS_MMN25<4>_b nfet_03v3 L=3e-07 W=1e-05 AD=4.4e-12 AS=2.6e-12 PD=2.088e-05
+ PS=1.052e-05 NRD=0.044 NRS=0.026 M=1 NF=1 PAR=1
XMMN42<1> N_NET5_MMN42<1>_d N_VIN1_MMN42<1>_g N_VTAILN_MMN42<1>_s
+ N_VSS_MMN25<4>_b nfet_03v3 L=3e-07 W=1e-05 AD=4.4e-12 AS=2.6e-12 PD=2.088e-05
+ PS=1.052e-05 NRD=0.044 NRS=0.026 M=1 NF=1 PAR=1
XMMN43<1> N_NET4_MMN43<1>_d N_VIN2_MMN43<1>_g N_VTAILN_MMN43<1>_s
+ N_VSS_MMN25<4>_b nfet_03v3 L=3e-07 W=1e-05 AD=4.4e-12 AS=2.6e-12 PD=2.088e-05
+ PS=1.052e-05 NRD=0.044 NRS=0.026 M=1 NF=1 PAR=1
XMMN42<0>@10 N_NET5_MMN42<0>@10_d N_VIN1_MMN42<0>@10_g N_VTAILN_MMN42<1>_s
+ N_VSS_MMN25<4>_b nfet_03v3 L=3e-07 W=1e-05 AD=2.6e-12 AS=2.6e-12 PD=1.052e-05
+ PS=1.052e-05 NRD=0.026 NRS=0.026 M=1 NF=1 PAR=1
XMMN43<0>@10 N_NET4_MMN43<0>@10_d N_VIN2_MMN43<0>@10_g N_VTAILN_MMN43<1>_s
+ N_VSS_MMN25<4>_b nfet_03v3 L=3e-07 W=1e-05 AD=2.6e-12 AS=2.6e-12 PD=1.052e-05
+ PS=1.052e-05 NRD=0.026 NRS=0.026 M=1 NF=1 PAR=1
XMMN42<0>@9 N_NET5_MMN42<0>@10_d N_VIN1_MMN42<0>@9_g N_VTAILN_MMN42<0>@9_s
+ N_VSS_MMN25<4>_b nfet_03v3 L=3e-07 W=1e-05 AD=2.6e-12 AS=2.6e-12 PD=1.052e-05
+ PS=1.052e-05 NRD=0.026 NRS=0.026 M=1 NF=1 PAR=1
XMMN43<0>@9 N_NET4_MMN43<0>@10_d N_VIN2_MMN43<0>@9_g N_VTAILN_MMN43<0>@9_s
+ N_VSS_MMN25<4>_b nfet_03v3 L=3e-07 W=1e-05 AD=2.6e-12 AS=2.6e-12 PD=1.052e-05
+ PS=1.052e-05 NRD=0.026 NRS=0.026 M=1 NF=1 PAR=1
XMMN42<0>@8 N_NET5_MMN42<0>@8_d N_VIN1_MMN42<0>@8_g N_VTAILN_MMN42<0>@9_s
+ N_VSS_MMN25<4>_b nfet_03v3 L=3e-07 W=1e-05 AD=2.6e-12 AS=2.6e-12 PD=1.052e-05
+ PS=1.052e-05 NRD=0.026 NRS=0.026 M=1 NF=1 PAR=1
XMMN43<0>@8 N_NET4_MMN43<0>@8_d N_VIN2_MMN43<0>@8_g N_VTAILN_MMN43<0>@9_s
+ N_VSS_MMN25<4>_b nfet_03v3 L=3e-07 W=1e-05 AD=2.6e-12 AS=2.6e-12 PD=1.052e-05
+ PS=1.052e-05 NRD=0.026 NRS=0.026 M=1 NF=1 PAR=1
XMMN42<0>@7 N_NET5_MMN42<0>@8_d N_VIN1_MMN42<0>@7_g N_VTAILN_MMN42<0>@7_s
+ N_VSS_MMN25<4>_b nfet_03v3 L=3e-07 W=1e-05 AD=2.6e-12 AS=2.6e-12 PD=1.052e-05
+ PS=1.052e-05 NRD=0.026 NRS=0.026 M=1 NF=1 PAR=1
XMMN43<0>@7 N_NET4_MMN43<0>@8_d N_VIN2_MMN43<0>@7_g N_VTAILN_MMN43<0>@7_s
+ N_VSS_MMN25<4>_b nfet_03v3 L=3e-07 W=1e-05 AD=2.6e-12 AS=2.6e-12 PD=1.052e-05
+ PS=1.052e-05 NRD=0.026 NRS=0.026 M=1 NF=1 PAR=1
XMMN42<0>@6 N_NET5_MMN42<0>@6_d N_VIN1_MMN42<0>@6_g N_VTAILN_MMN42<0>@7_s
+ N_VSS_MMN25<4>_b nfet_03v3 L=3e-07 W=1e-05 AD=2.6e-12 AS=2.6e-12 PD=1.052e-05
+ PS=1.052e-05 NRD=0.026 NRS=0.026 M=1 NF=1 PAR=1
XMMN43<0>@6 N_NET4_MMN43<0>@6_d N_VIN2_MMN43<0>@6_g N_VTAILN_MMN43<0>@7_s
+ N_VSS_MMN25<4>_b nfet_03v3 L=3e-07 W=1e-05 AD=2.6e-12 AS=2.6e-12 PD=1.052e-05
+ PS=1.052e-05 NRD=0.026 NRS=0.026 M=1 NF=1 PAR=1
XMMN42<0>@5 N_NET5_MMN42<0>@6_d N_VIN1_MMN42<0>@5_g N_VTAILN_MMN42<0>@5_s
+ N_VSS_MMN25<4>_b nfet_03v3 L=3e-07 W=1e-05 AD=2.6e-12 AS=2.6e-12 PD=1.052e-05
+ PS=1.052e-05 NRD=0.026 NRS=0.026 M=1 NF=1 PAR=1
XMMN43<0>@5 N_NET4_MMN43<0>@6_d N_VIN2_MMN43<0>@5_g N_VTAILN_MMN43<0>@5_s
+ N_VSS_MMN25<4>_b nfet_03v3 L=3e-07 W=1e-05 AD=2.6e-12 AS=2.6e-12 PD=1.052e-05
+ PS=1.052e-05 NRD=0.026 NRS=0.026 M=1 NF=1 PAR=1
XMMN42<0>@4 N_NET5_MMN42<0>@4_d N_VIN1_MMN42<0>@4_g N_VTAILN_MMN42<0>@5_s