* NGSPICE file created from opamp2_nodw.ext - technology: gf180mcuC

.subckt opamp2 vout vout_t vbiasp vbiasn vin2 vin1 vprog vss vdd
X0 vss a_31806_2835# vout vss nfet_03v3 ad=2.6p pd=10.52u as=2.6p ps=10.52u w=10u l=300n
X1 a_13786_2835# vin2 a_7580_3503# vdd pfet_03v3 ad=2.6p pd=10.52u as=4.4p ps=20.88u w=10u l=300n
X2 vss vss vss vss nfet_03v3 ad=367.68p pd=0.00156024 as=2.6p ps=10.52u w=10u l=300n
X3 a_13786_2835# vin2 a_7580_3503# vdd pfet_03v3 ad=2.6p pd=10.52u as=2.6p ps=10.52u w=10u l=300n
X4 vout a_31806_2835# vss vss nfet_03v3 ad=4.4p pd=20.88u as=2.6p ps=10.52u w=10u l=300n
X5 a_13786_5007# vin1 a_7580_3503# vdd pfet_03v3 ad=2.6p pd=10.52u as=2.6p ps=10.52u w=10u l=300n
X6 a_19749_n2296# vin1 a_9856_n4071# vss nfet_03v3 ad=4.4p pd=20.88u as=2.6p ps=10.52u w=10u l=300n
X7 vdd vdd vdd vdd pfet_03v3 ad=463.44p pd=0.0020616 as=1.1p ps=5.88u w=2.5u l=3u
X8 a_7580_3503# vin1 a_13786_5007# vdd pfet_03v3 ad=2.6p pd=10.52u as=2.6p ps=10.52u w=10u l=300n
X9 a_9856_n4071# vin1 a_19749_n2296# vss nfet_03v3 ad=2.6p pd=10.52u as=4.4p ps=20.88u w=10u l=300n
X10 vdd vdd vdd vdd pfet_03v3 ad=0 pd=0 as=2.6p ps=10.52u w=10u l=300n
X11 a_11312_n4152# a_6084_4175# a_6084_4175# vss nfet_03v3 ad=520f pd=2.52u as=880f ps=4.88u w=2u l=1000n
X12 vdd vdd vdd vdd pfet_03v3 ad=0 pd=0 as=2.6p ps=10.52u w=10u l=300n
X13 a_13786_2835# a_31806_5067# vss vss nfet_03v3 ad=2.6p pd=10.52u as=4.4p ps=20.88u w=10u l=1000n
X14 a_9856_n4071# vin2 a_19749_n6676# vss nfet_03v3 ad=2.6p pd=10.52u as=4.4p ps=20.88u w=10u l=300n
X15 a_7580_3503# a_5796_5519# vdd vdd pfet_03v3 ad=1.1p pd=5.88u as=1.1p ps=5.88u w=2.5u l=3u
X16 vdd vdd vdd vdd pfet_03v3 ad=0 pd=0 as=2.6p ps=10.52u w=10u l=300n
X17 a_7580_3503# vin2 a_13786_2835# vdd pfet_03v3 ad=2.6p pd=10.52u as=2.6p ps=10.52u w=10u l=300n
X18 a_19749_n6676# vin2 a_9856_n4071# vss nfet_03v3 ad=4.4p pd=20.88u as=2.6p ps=10.52u w=10u l=300n
X19 vdd a_28902_5067# vout vdd pfet_03v3 ad=2.6p pd=10.52u as=2.6p ps=10.52u w=10u l=300n
X20 a_19749_n6676# vin2 a_9856_n4071# vss nfet_03v3 ad=2.6p pd=10.52u as=2.6p ps=10.52u w=10u l=300n
X21 a_9656_n5262# a_5010_6963# a_5010_6963# vss nfet_03v3 ad=520f pd=2.52u as=880f ps=4.88u w=2u l=1000n
X22 vout_t vdd vout vss nfet_03v3 ad=260f pd=1.52u as=260f ps=1.52u w=1000n l=280n
X23 a_13786_5007# vin1 a_7580_3503# vdd pfet_03v3 ad=2.6p pd=10.52u as=4.4p ps=20.88u w=10u l=300n
X24 vdd vdd vdd vdd pfet_03v3 ad=0 pd=0 as=2.6p ps=10.52u w=10u l=300n
X25 vss vss vss vss nfet_03v3 ad=0 pd=0 as=2.6p ps=10.52u w=10u l=300n
X26 a_9856_n4071# vin2 a_19749_n6676# vss nfet_03v3 ad=2.6p pd=10.52u as=2.6p ps=10.52u w=10u l=300n
X27 vout a_28902_5067# vdd vdd pfet_03v3 ad=2.6p pd=10.52u as=2.6p ps=10.52u w=10u l=300n
X28 a_9656_n5262# a_9656_n5262# vss vss nfet_03v3 ad=1.04p pd=4.52u as=1.04p ps=4.52u w=4u l=1000n
X29 a_7580_3503# vin2 a_13786_2835# vdd pfet_03v3 ad=2.6p pd=10.52u as=2.6p ps=10.52u w=10u l=300n
X30 vss vss vss vss nfet_03v3 ad=0 pd=0 as=4.4p ps=20.88u w=10u l=300n
X31 a_7580_3503# vin2 a_13786_2835# vdd pfet_03v3 ad=2.6p pd=10.52u as=2.6p ps=10.52u w=10u l=300n
X32 vdd vdd vdd vdd pfet_03v3 ad=0 pd=0 as=1.1p ps=5.88u w=2.5u l=1000n
X33 vss vss vss vss nfet_03v3 ad=0 pd=0 as=2.6p ps=10.52u w=10u l=300n
X34 vss a_31806_2835# vout vss nfet_03v3 ad=2.6p pd=10.52u as=2.6p ps=10.52u w=10u l=300n
X35 a_7580_3503# vin1 a_13786_5007# vdd pfet_03v3 ad=2.6p pd=10.52u as=2.6p ps=10.52u w=10u l=300n
X36 vss vss vss vss nfet_03v3 ad=0 pd=0 as=2.6p ps=10.52u w=10u l=300n
X37 a_19749_n2296# vin1 a_9856_n4071# vss nfet_03v3 ad=2.6p pd=10.52u as=2.6p ps=10.52u w=10u l=300n
X38 vss vss vss vss nfet_03v3 ad=0 pd=0 as=2.6p ps=10.52u w=10u l=300n
X39 vdd vdd vdd vdd pfet_03v3 ad=0 pd=0 as=2.6p ps=10.52u w=10u l=300n
X40 vout vss vout_t vdd pfet_03v3 ad=520f pd=2.52u as=520f ps=2.52u w=2u l=280n
X41 vdd vdd vdd vdd pfet_03v3 ad=0 pd=0 as=1.1p ps=5.88u w=2.5u l=3u
X42 vss vss vss vss nfet_03v3 ad=0 pd=0 as=2.6p ps=10.52u w=10u l=300n
X43 vout_t vdd vout vss nfet_03v3 ad=260f pd=1.52u as=260f ps=1.52u w=1000n l=280n
X44 a_7580_3503# vin1 a_13786_5007# vdd pfet_03v3 ad=2.6p pd=10.52u as=2.6p ps=10.52u w=10u l=300n
X45 a_19749_n6676# vin2 a_9856_n4071# vss nfet_03v3 ad=2.6p pd=10.52u as=2.6p ps=10.52u w=10u l=300n
X46 a_5010_6963# a_5010_6963# a_9656_n5262# vss nfet_03v3 ad=520f pd=2.52u as=520f ps=2.52u w=2u l=1000n
X47 a_7580_3503# a_5796_5519# vdd vdd pfet_03v3 ad=1.1p pd=5.88u as=1.1p ps=5.88u w=2.5u l=3u
X48 vdd vdd vdd vdd pfet_03v3 ad=0 pd=0 as=2.6p ps=10.52u w=10u l=300n
X49 a_19749_n6676# vbiasp a_28902_5067# vdd pfet_03v3 ad=4.4p pd=20.88u as=2.6p ps=10.52u w=10u l=3u
X50 vdd a_21261_4878# a_19749_n6676# vdd pfet_03v3 ad=2.6p pd=10.52u as=2.6p ps=10.52u w=10u l=3u
X51 a_9856_n4071# a_9656_n5262# vss vss nfet_03v3 ad=1.04p pd=4.52u as=1.04p ps=4.52u w=4u l=1000n
X52 a_11312_n4152# a_11312_n4152# vss vss nfet_03v3 ad=880f pd=4.88u as=880f ps=4.88u w=2u l=1000n
X53 vdd vdd vdd vdd pfet_03v3 ad=0 pd=0 as=2.6p ps=10.52u w=10u l=300n
X54 a_13786_2835# vin2 a_7580_3503# vdd pfet_03v3 ad=2.6p pd=10.52u as=4.4p ps=20.88u w=10u l=300n
X55 a_9856_n4071# vin1 a_19749_n2296# vss nfet_03v3 ad=2.6p pd=10.52u as=2.6p ps=10.52u w=10u l=300n
X56 a_13786_2835# vin2 a_7580_3503# vdd pfet_03v3 ad=2.6p pd=10.52u as=2.6p ps=10.52u w=10u l=300n
X57 vout vdd vout_t vss nfet_03v3 ad=260f pd=1.52u as=260f ps=1.52u w=1000n l=280n
X58 a_19749_n6676# vin2 a_9856_n4071# vss nfet_03v3 ad=2.6p pd=10.52u as=2.6p ps=10.52u w=10u l=300n
X59 a_7580_3503# a_5796_5519# vdd vdd pfet_03v3 ad=1.1p pd=5.88u as=1.1p ps=5.88u w=2.5u l=3u
X60 a_7580_3503# a_5796_5519# vdd vdd pfet_03v3 ad=1.1p pd=5.88u as=1.1p ps=5.88u w=2.5u l=3u
X61 a_7580_3503# vin1 a_13786_5007# vdd pfet_03v3 ad=2.6p pd=10.52u as=2.6p ps=10.52u w=10u l=300n
X62 vss vss vss vss nfet_03v3 ad=0 pd=0 as=2.6p ps=10.52u w=10u l=300n
X63 vdd vdd vdd vdd pfet_03v3 ad=0 pd=0 as=2.6p ps=10.52u w=10u l=300n
X64 a_19749_n2296# vin1 a_9856_n4071# vss nfet_03v3 ad=4.4p pd=20.88u as=2.6p ps=10.52u w=10u l=300n
X65 a_5796_5519# a_5796_5519# vdd vdd pfet_03v3 ad=880f pd=4.88u as=880f ps=4.88u w=2u l=3u
X66 vss a_31806_2835# vout vss nfet_03v3 ad=2.6p pd=10.52u as=4.4p ps=20.88u w=10u l=300n
X67 vdd vdd vdd vdd pfet_03v3 ad=0 pd=0 as=2.6p ps=10.52u w=10u l=300n
X68 vdd a_28902_5067# vout vdd pfet_03v3 ad=2.6p pd=10.52u as=2.6p ps=10.52u w=10u l=300n
X69 vdd a_21261_4878# a_19749_n2296# vdd pfet_03v3 ad=2.6p pd=10.52u as=2.6p ps=10.52u w=10u l=3u
X70 vss a_9656_n5262# a_9856_n4071# vss nfet_03v3 ad=1.04p pd=4.52u as=1.04p ps=4.52u w=4u l=1000n
X71 vdd vdd vdd vdd pfet_03v3 ad=1.1p pd=5.88u as=0 ps=0 w=2.5u l=3u
X72 vdd a_28902_5067# vout vdd pfet_03v3 ad=2.6p pd=10.52u as=2.6p ps=10.52u w=10u l=300n
X73 vss vss vss vss nfet_03v3 ad=0 pd=0 as=2.6p ps=10.52u w=10u l=300n
X74 a_4788_4131# a_4788_4131# a_4700_4175# vdd pfet_03v3 ad=1.1p pd=5.88u as=1.1p ps=5.88u w=2.5u l=1000n
X75 a_13786_5007# vin1 a_7580_3503# vdd pfet_03v3 ad=2.6p pd=10.52u as=2.6p ps=10.52u w=10u l=300n
X76 a_13786_5007# vin1 a_7580_3503# vdd pfet_03v3 ad=2.6p pd=10.52u as=4.4p ps=20.88u w=10u l=300n
X77 a_7580_3503# a_5796_5519# vdd vdd pfet_03v3 ad=1.1p pd=5.88u as=1.1p ps=5.88u w=2.5u l=3u
X78 a_9656_n5262# a_9656_n5262# vss vss nfet_03v3 ad=1.04p pd=4.52u as=1.76p ps=8.88u w=4u l=1000n
X79 vss vss vss vss nfet_03v3 ad=0 pd=0 as=2.6p ps=10.52u w=10u l=300n
X80 a_13786_5007# vin1 a_7580_3503# vdd pfet_03v3 ad=2.6p pd=10.52u as=2.6p ps=10.52u w=10u l=300n
X81 vdd vdd vdd vdd pfet_03v3 ad=0 pd=0 as=2.6p ps=10.52u w=10u l=300n
X82 a_19749_n6676# vin2 a_9856_n4071# vss nfet_03v3 ad=2.6p pd=10.52u as=2.6p ps=10.52u w=10u l=300n
X83 a_9856_n4071# vin2 a_19749_n6676# vss nfet_03v3 ad=2.6p pd=10.52u as=2.6p ps=10.52u w=10u l=300n
X84 vdd vdd vdd vdd pfet_03v3 ad=0 pd=0 as=1.1p ps=5.88u w=2.5u l=1000n
X85 a_9856_n4071# a_9656_n5262# vss vss nfet_03v3 ad=1.04p pd=4.52u as=1.04p ps=4.52u w=4u l=1000n
X86 vss vss vss vss nfet_03v3 ad=0 pd=0 as=2.6p ps=10.52u w=10u l=300n
X87 a_7580_3503# vin2 a_13786_2835# vdd pfet_03v3 ad=2.6p pd=10.52u as=2.6p ps=10.52u w=10u l=300n
X88 a_9856_n4071# a_9656_n5262# vss vss nfet_03v3 ad=1.76p pd=8.88u as=1.04p ps=4.52u w=4u l=1000n
X89 a_28902_5067# vout cap_mim_2f0_m4m5_noshield c_width=25u c_length=25u
X90 a_19749_n6676# vin2 a_9856_n4071# vss nfet_03v3 ad=2.6p pd=10.52u as=2.6p ps=10.52u w=10u l=300n
X91 a_9856_n4071# vin2 a_19749_n6676# vss nfet_03v3 ad=2.6p pd=10.52u as=2.6p ps=10.52u w=10u l=300n
X92 vdd vdd vdd vdd pfet_03v3 ad=0 pd=0 as=1.1p ps=5.88u w=2.5u l=1000n
X93 a_7580_3503# a_5796_5519# vdd vdd pfet_03v3 ad=1.1p pd=5.88u as=1.1p ps=5.88u w=2.5u l=3u
X94 a_7580_3503# a_5796_5519# vdd vdd pfet_03v3 ad=1.1p pd=5.88u as=1.1p ps=5.88u w=2.5u l=3u
X95 a_13786_2835# vin2 a_7580_3503# vdd pfet_03v3 ad=2.6p pd=10.52u as=2.6p ps=10.52u w=10u l=300n
X96 a_7580_3503# a_5796_5519# vdd vdd pfet_03v3 ad=1.1p pd=5.88u as=1.1p ps=5.88u w=2.5u l=3u
X97 vss a_9656_n5262# a_9856_n4071# vss nfet_03v3 ad=1.04p pd=4.52u as=1.04p ps=4.52u w=4u l=1000n
X98 a_9856_n4071# vin2 a_19749_n6676# vss nfet_03v3 ad=2.6p pd=10.52u as=2.6p ps=10.52u w=10u l=300n
X99 a_19749_n2296# vin1 a_9856_n4071# vss nfet_03v3 ad=2.6p pd=10.52u as=2.6p ps=10.52u w=10u l=300n
X100 vdd vdd vdd vdd pfet_03v3 ad=0 pd=0 as=1.1p ps=5.88u w=2.5u l=1000n
X101 a_13786_5007# a_31806_5067# vss vss nfet_03v3 ad=2.6p pd=10.52u as=4.4p ps=20.88u w=10u l=1000n
X102 a_7580_3503# a_5796_5519# vdd vdd pfet_03v3 ad=1.1p pd=5.88u as=1.1p ps=5.88u w=2.5u l=3u
X103 vss vss vss vss nfet_03v3 ad=0 pd=0 as=2.6p ps=10.52u w=10u l=300n
X104 vdd vprog a_5010_6963# vdd pfet_03v3 ad=880f pd=4.88u as=880f ps=4.88u w=2u l=3u
X105 a_13786_5007# vin1 a_7580_3503# vdd pfet_03v3 ad=2.6p pd=10.52u as=4.4p ps=20.88u w=10u l=300n
X106 a_11512_n3371# a_5010_6963# a_4788_4131# vss nfet_03v3 ad=520f pd=2.52u as=520f ps=2.52u w=2u l=1000n
X107 vdd vdd vdd vdd pfet_03v3 ad=0 pd=0 as=2.6p ps=10.52u w=10u l=300n
X108 vdd vdd vdd vdd pfet_03v3 ad=0 pd=0 as=2.6p ps=10.52u w=10u l=300n
X109 vss vss vss vss nfet_03v3 ad=0 pd=0 as=2.6p ps=10.52u w=10u l=300n
X110 a_9856_n4071# vin2 a_19749_n6676# vss nfet_03v3 ad=2.6p pd=10.52u as=2.6p ps=10.52u w=10u l=300n
X111 a_19749_n6676# a_21261_4878# vdd vdd pfet_03v3 ad=2.6p pd=10.52u as=2.6p ps=10.52u w=10u l=3u
X112 a_9856_n4071# a_9656_n5262# vss vss nfet_03v3 ad=1.04p pd=4.52u as=1.04p ps=4.52u w=4u l=1000n
X113 vdd vdd vdd vdd pfet_03v3 ad=0 pd=0 as=2.6p ps=10.52u w=10u l=300n
X114 a_9856_n4071# vin1 a_19749_n2296# vss nfet_03v3 ad=2.6p pd=10.52u as=2.6p ps=10.52u w=10u l=300n
X115 a_7580_3503# a_5796_5519# vdd vdd pfet_03v3 ad=1.1p pd=5.88u as=1.1p ps=5.88u w=2.5u l=3u
X116 vout_t vss vout vdd pfet_03v3 ad=520f pd=2.52u as=520f ps=2.52u w=2u l=280n
X117 vdd vdd vdd vdd pfet_03v3 ad=0 pd=0 as=1.1p ps=5.88u w=2.5u l=1000n
X118 vss vss vss vss nfet_03v3 ad=0 pd=0 as=2.6p ps=10.52u w=10u l=300n
X119 vss vss vss vss nfet_03v3 ad=0 pd=0 as=2.6p ps=10.52u w=10u l=300n
X120 a_31806_2835# a_4788_4131# a_28902_5067# vdd pfet_03v3 ad=4.4p pd=20.88u as=4.4p ps=20.88u w=10u l=1000n
X121 vss vss vss vss nfet_03v3 ad=0 pd=0 as=2.6p ps=10.52u w=10u l=300n
X122 vss vss vss vss nfet_03v3 ad=0 pd=0 as=2.6p ps=10.52u w=10u l=300n
X123 a_28902_5067# vout cap_mim_2f0_m4m5_noshield c_width=25u c_length=25u
X124 a_6084_4175# a_6084_4175# a_11312_n4152# vss nfet_03v3 ad=520f pd=2.52u as=520f ps=2.52u w=2u l=1000n
X125 vdd vdd vdd vdd pfet_03v3 ad=0 pd=0 as=2.6p ps=10.52u w=10u l=300n
X126 vdd a_28902_5067# vout vdd pfet_03v3 ad=2.6p pd=10.52u as=2.6p ps=10.52u w=10u l=300n
X127 a_7580_3503# a_5796_5519# vdd vdd pfet_03v3 ad=1.1p pd=5.88u as=1.1p ps=5.88u w=2.5u l=3u
X128 vdd a_21261_4878# a_19749_n6676# vdd pfet_03v3 ad=2.6p pd=10.52u as=2.6p ps=10.52u w=10u l=3u
X129 a_4788_4131# a_4788_4131# a_4700_4175# vdd pfet_03v3 ad=1.1p pd=5.88u as=1.1p ps=5.88u w=2.5u l=1000n
X130 a_13786_2835# vin2 a_7580_3503# vdd pfet_03v3 ad=2.6p pd=10.52u as=4.4p ps=20.88u w=10u l=300n
X131 a_13786_5007# vin1 a_7580_3503# vdd pfet_03v3 ad=2.6p pd=10.52u as=2.6p ps=10.52u w=10u l=300n
X132 a_9856_n4071# vin1 a_19749_n2296# vss nfet_03v3 ad=2.6p pd=10.52u as=2.6p ps=10.52u w=10u l=300n
X133 a_19749_n2296# vin1 a_9856_n4071# vss nfet_03v3 ad=2.6p pd=10.52u as=2.6p ps=10.52u w=10u l=300n
X134 a_13786_5007# vin1 a_7580_3503# vdd pfet_03v3 ad=2.6p pd=10.52u as=2.6p ps=10.52u w=10u l=300n
X135 a_9856_n4071# a_9656_n5262# vss vss nfet_03v3 ad=1.04p pd=4.52u as=1.76p ps=8.88u w=4u l=1000n
X136 a_7580_3503# a_5796_5519# vdd vdd pfet_03v3 ad=1.1p pd=5.88u as=1.1p ps=5.88u w=2.5u l=3u
X137 vdd vdd vdd vdd pfet_03v3 ad=0 pd=0 as=1.1p ps=5.88u w=2.5u l=1000n
X138 vout_t vdd vout vss nfet_03v3 ad=260f pd=1.52u as=260f ps=1.52u w=1000n l=280n
X139 vdd vdd vdd vdd pfet_03v3 ad=0 pd=0 as=1.1p ps=5.88u w=2.5u l=1000n
X140 a_9856_n4071# vin1 a_19749_n2296# vss nfet_03v3 ad=2.6p pd=10.52u as=2.6p ps=10.52u w=10u l=300n
X141 vout_t vss vout vdd pfet_03v3 ad=520f pd=2.52u as=520f ps=2.52u w=2u l=280n
X142 a_9856_n4071# a_9656_n5262# vss vss nfet_03v3 ad=1.76p pd=8.88u as=1.04p ps=4.52u w=4u l=1000n
X143 vdd vdd vdd vdd pfet_03v3 ad=0 pd=0 as=1.1p ps=5.88u w=2.5u l=1000n
X144 a_19749_n2296# vin1 a_9856_n4071# vss nfet_03v3 ad=2.6p pd=10.52u as=2.6p ps=10.52u w=10u l=300n
X145 a_7580_3503# a_5796_5519# vdd vdd pfet_03v3 ad=1.1p pd=5.88u as=1.1p ps=5.88u w=2.5u l=3u
X146 a_7580_3503# a_5796_5519# vdd vdd pfet_03v3 ad=1.1p pd=5.88u as=1.1p ps=5.88u w=2.5u l=3u
X147 a_9856_n4071# vin1 a_19749_n2296# vss nfet_03v3 ad=2.6p pd=10.52u as=2.6p ps=10.52u w=10u l=300n
X148 vss vss vss vss nfet_03v3 ad=0 pd=0 as=2.6p ps=10.52u w=10u l=300n
X149 a_19749_n6676# vin2 a_9856_n4071# vss nfet_03v3 ad=2.6p pd=10.52u as=2.6p ps=10.52u w=10u l=300n
X150 a_13786_2835# vin2 a_7580_3503# vdd pfet_03v3 ad=2.6p pd=10.52u as=2.6p ps=10.52u w=10u l=300n
X151 vdd vdd vdd vdd pfet_03v3 ad=0 pd=0 as=880f ps=4.88u w=2u l=3u
X152 a_19749_n2296# vin1 a_9856_n4071# vss nfet_03v3 ad=4.4p pd=20.88u as=2.6p ps=10.52u w=10u l=300n
X153 a_13786_2835# vin2 a_7580_3503# vdd pfet_03v3 ad=2.6p pd=10.52u as=2.6p ps=10.52u w=10u l=300n
X154 vout a_28902_5067# vdd vdd pfet_03v3 ad=2.6p pd=10.52u as=2.6p ps=10.52u w=10u l=300n
X155 a_7580_3503# a_5796_5519# vdd vdd pfet_03v3 ad=1.1p pd=5.88u as=1.1p ps=5.88u w=2.5u l=3u
X156 a_31806_2835# vbiasn a_13786_2835# vss nfet_03v3 ad=4.4p pd=20.88u as=2.6p ps=10.52u w=10u l=1000n
X157 vout vss vout_t vdd pfet_03v3 ad=520f pd=2.52u as=520f ps=2.52u w=2u l=280n
X158 a_7580_3503# vin2 a_13786_2835# vdd pfet_03v3 ad=4.4p pd=20.88u as=2.6p ps=10.52u w=10u l=300n
X159 a_5010_6963# a_5010_6963# a_9656_n5262# vss nfet_03v3 ad=520f pd=2.52u as=520f ps=2.52u w=2u l=1000n
X160 a_19749_n6676# vbiasp a_28902_5067# vdd pfet_03v3 ad=4.4p pd=20.88u as=2.6p ps=10.52u w=10u l=3u
X161 a_7580_3503# vin1 a_13786_5007# vdd pfet_03v3 ad=2.6p pd=10.52u as=2.6p ps=10.52u w=10u l=300n
X162 vss vss vss vss nfet_03v3 ad=0 pd=0 as=2.6p ps=10.52u w=10u l=300n
X163 a_5884_4131# a_5884_4131# a_5796_5519# vdd pfet_03v3 ad=1.1p pd=5.88u as=1.1p ps=5.88u w=2.5u l=1000n
X164 a_13786_5007# vin1 a_7580_3503# vdd pfet_03v3 ad=2.6p pd=10.52u as=2.6p ps=10.52u w=10u l=300n
X165 vss a_31806_2835# vout vss nfet_03v3 ad=2.6p pd=10.52u as=2.6p ps=10.52u w=10u l=300n
X166 vdd vdd vdd vdd pfet_03v3 ad=0 pd=0 as=2.6p ps=10.52u w=10u l=300n
X167 vout_t vdd vout vss nfet_03v3 ad=260f pd=1.52u as=260f ps=1.52u w=1000n l=280n
X168 a_7580_3503# a_5796_5519# vdd vdd pfet_03v3 ad=1.1p pd=5.88u as=1.1p ps=5.88u w=2.5u l=3u
X169 vdd vdd vdd vdd pfet_03v3 ad=0 pd=0 as=2.6p ps=10.52u w=10u l=300n
X170 vout a_28902_5067# vdd vdd pfet_03v3 ad=2.6p pd=10.52u as=2.6p ps=10.52u w=10u l=300n
X171 a_19749_n2296# a_21261_4878# vdd vdd pfet_03v3 ad=2.6p pd=10.52u as=2.6p ps=10.52u w=10u l=3u
X172 a_9856_n4071# vin2 a_19749_n6676# vss nfet_03v3 ad=2.6p pd=10.52u as=2.6p ps=10.52u w=10u l=300n
X173 a_19749_n6676# vin2 a_9856_n4071# vss nfet_03v3 ad=2.6p pd=10.52u as=2.6p ps=10.52u w=10u l=300n
X174 a_5884_4131# a_5884_4131# a_5796_5519# vdd pfet_03v3 ad=1.1p pd=5.88u as=1.1p ps=5.88u w=2.5u l=1000n
X175 a_7580_3503# vin1 a_13786_5007# vdd pfet_03v3 ad=4.4p pd=20.88u as=2.6p ps=10.52u w=10u l=300n
X176 a_31806_5067# a_4788_4131# a_21261_4878# vdd pfet_03v3 ad=4.4p pd=20.88u as=4.4p ps=20.88u w=10u l=1000n
X177 a_7580_3503# a_5796_5519# vdd vdd pfet_03v3 ad=1.1p pd=5.88u as=1.1p ps=5.88u w=2.5u l=3u
X178 a_7580_3503# vin2 a_13786_2835# vdd pfet_03v3 ad=2.6p pd=10.52u as=2.6p ps=10.52u w=10u l=300n
X179 vout vdd vout_t vss nfet_03v3 ad=260f pd=1.52u as=260f ps=1.52u w=1000n l=280n
X180 a_13786_2835# vin2 a_7580_3503# vdd pfet_03v3 ad=2.6p pd=10.52u as=2.6p ps=10.52u w=10u l=300n
X181 a_31806_2835# vout cap_mim_2f0_m4m5_noshield c_width=25u c_length=25u
X182 vss vss vss vss nfet_03v3 ad=0 pd=0 as=4.4p ps=20.88u w=10u l=300n
X183 a_19749_n2296# a_21261_4878# vdd vdd pfet_03v3 ad=2.6p pd=10.52u as=2.6p ps=10.52u w=10u l=3u
X184 a_21261_4878# vbiasp a_19749_n2296# vdd pfet_03v3 ad=2.6p pd=10.52u as=2.6p ps=10.52u w=10u l=3u
X185 a_7580_3503# a_5796_5519# vdd vdd pfet_03v3 ad=1.1p pd=5.88u as=1.1p ps=5.88u w=2.5u l=3u
X186 a_9656_n5262# a_5010_6963# a_5010_6963# vss nfet_03v3 ad=880f pd=4.88u as=520f ps=2.52u w=2u l=1000n
X187 a_13786_5007# vin1 a_7580_3503# vdd pfet_03v3 ad=2.6p pd=10.52u as=2.6p ps=10.52u w=10u l=300n
X188 vout a_31806_2835# vss vss nfet_03v3 ad=2.6p pd=10.52u as=2.6p ps=10.52u w=10u l=300n
X189 vss a_9656_n5262# a_9856_n4071# vss nfet_03v3 ad=1.04p pd=4.52u as=1.04p ps=4.52u w=4u l=1000n
X190 vdd vdd vdd vdd pfet_03v3 ad=0 pd=0 as=1.1p ps=5.88u w=2.5u l=1000n
X191 vss vss vss vss nfet_03v3 ad=0 pd=0 as=2.6p ps=10.52u w=10u l=300n
X192 a_6084_4175# a_5884_4131# a_5796_4175# vdd pfet_03v3 ad=1.1p pd=5.88u as=1.1p ps=5.88u w=2.5u l=1000n
X193 vdd vdd vdd vdd pfet_03v3 ad=0 pd=0 as=2.6p ps=10.52u w=10u l=300n
X194 a_9856_n4071# vin1 a_19749_n2296# vss nfet_03v3 ad=2.6p pd=10.52u as=2.6p ps=10.52u w=10u l=300n
X195 vss vss vss vss nfet_03v3 ad=0 pd=0 as=2.6p ps=10.52u w=10u l=300n
X196 vout a_31806_2835# vss vss nfet_03v3 ad=2.6p pd=10.52u as=2.6p ps=10.52u w=10u l=300n
X197 a_11512_n3371# a_5010_6963# a_4788_4131# vss nfet_03v3 ad=520f pd=2.52u as=520f ps=2.52u w=2u l=1000n
X198 a_9856_n4071# a_9656_n5262# vss vss nfet_03v3 ad=1.04p pd=4.52u as=1.76p ps=8.88u w=4u l=1000n
X199 vss vss vss vss nfet_03v3 ad=0 pd=0 as=2.6p ps=10.52u w=10u l=300n
X200 vout vdd vout_t vss nfet_03v3 ad=260f pd=1.52u as=440f ps=2.88u w=1000n l=280n
X201 vdd vdd vdd vdd pfet_03v3 ad=0 pd=0 as=2.6p ps=10.52u w=10u l=300n
X202 a_7580_3503# vin1 a_13786_5007# vdd pfet_03v3 ad=2.6p pd=10.52u as=2.6p ps=10.52u w=10u l=300n
X203 a_9856_n4071# vin1 a_19749_n2296# vss nfet_03v3 ad=2.6p pd=10.52u as=2.6p ps=10.52u w=10u l=300n
X204 a_9856_n4071# a_9656_n5262# vss vss nfet_03v3 ad=1.76p pd=8.88u as=1.04p ps=4.52u w=4u l=1000n
X205 a_7580_3503# a_5796_5519# vdd vdd pfet_03v3 ad=1.1p pd=5.88u as=1.1p ps=5.88u w=2.5u l=3u
X206 a_13786_2835# vin2 a_7580_3503# vdd pfet_03v3 ad=2.6p pd=10.52u as=2.6p ps=10.52u w=10u l=300n
X207 vdd vdd vdd vdd pfet_03v3 ad=0 pd=0 as=2.6p ps=10.52u w=10u l=300n
X208 a_7580_3503# vin2 a_13786_2835# vdd pfet_03v3 ad=2.6p pd=10.52u as=2.6p ps=10.52u w=10u l=300n
X209 vss a_9656_n5262# a_9656_n5262# vss nfet_03v3 ad=1.04p pd=4.52u as=1.04p ps=4.52u w=4u l=1000n
X210 a_6084_4175# a_6084_4175# a_11312_n4152# vss nfet_03v3 ad=520f pd=2.52u as=520f ps=2.52u w=2u l=1000n
X211 a_5884_4131# a_5884_4131# a_5796_5519# vdd pfet_03v3 ad=1.1p pd=5.88u as=1.1p ps=5.88u w=2.5u l=1000n
X212 a_19749_n2296# vbiasp a_21261_4878# vdd pfet_03v3 ad=4.4p pd=20.88u as=2.6p ps=10.52u w=10u l=3u
X213 a_13786_5007# vin1 a_7580_3503# vdd pfet_03v3 ad=2.6p pd=10.52u as=2.6p ps=10.52u w=10u l=300n
X214 a_19749_n2296# vin1 a_9856_n4071# vss nfet_03v3 ad=2.6p pd=10.52u as=2.6p ps=10.52u w=10u l=300n
X215 vdd vdd vdd vdd pfet_03v3 ad=0 pd=0 as=2.6p ps=10.52u w=10u l=300n
X216 vout a_28902_5067# vdd vdd pfet_03v3 ad=2.6p pd=10.52u as=2.6p ps=10.52u w=10u l=300n
X217 a_7580_3503# vin2 a_13786_2835# vdd pfet_03v3 ad=2.6p pd=10.52u as=2.6p ps=10.52u w=10u l=300n
X218 a_19749_n2296# vin1 a_9856_n4071# vss nfet_03v3 ad=2.6p pd=10.52u as=2.6p ps=10.52u w=10u l=300n
X219 vdd a_21261_4878# a_19749_n6676# vdd pfet_03v3 ad=2.6p pd=10.52u as=4.4p ps=20.88u w=10u l=3u
X220 a_28902_5067# vout cap_mim_2f0_m4m5_noshield c_width=25u c_length=25u
X221 a_5010_6963# a_5010_6963# a_9656_n5262# vss nfet_03v3 ad=520f pd=2.52u as=520f ps=2.52u w=2u l=1000n
X222 a_9856_n4071# vin1 a_19749_n2296# vss nfet_03v3 ad=2.6p pd=10.52u as=2.6p ps=10.52u w=10u l=300n
X223 a_7580_3503# a_5796_5519# vdd vdd pfet_03v3 ad=1.1p pd=5.88u as=1.1p ps=5.88u w=2.5u l=3u
X224 a_5884_4131# a_5884_4131# a_5796_5519# vdd pfet_03v3 ad=1.1p pd=5.88u as=1.1p ps=5.88u w=2.5u l=1000n
X225 a_7580_3503# vin1 a_13786_5007# vdd pfet_03v3 ad=2.6p pd=10.52u as=2.6p ps=10.52u w=10u l=300n
X226 a_9856_n4071# vin2 a_19749_n6676# vss nfet_03v3 ad=2.6p pd=10.52u as=2.6p ps=10.52u w=10u l=300n
X227 a_7580_3503# a_5796_5519# vdd vdd pfet_03v3 ad=1.1p pd=5.88u as=1.1p ps=5.88u w=2.5u l=3u
X228 a_7580_3503# vin1 a_13786_5007# vdd pfet_03v3 ad=2.6p pd=10.52u as=2.6p ps=10.52u w=10u l=300n
X229 vss vss vss vss nfet_03v3 ad=0 pd=0 as=2.6p ps=10.52u w=10u l=300n
X230 vout_t vss vout vdd pfet_03v3 ad=520f pd=2.52u as=520f ps=2.52u w=2u l=280n
X231 vss vss vss vss nfet_03v3 ad=0 pd=0 as=2.6p ps=10.52u w=10u l=300n
X232 a_13786_2835# vin2 a_7580_3503# vdd pfet_03v3 ad=2.6p pd=10.52u as=2.6p ps=10.52u w=10u l=300n
X233 a_13786_2835# vin2 a_7580_3503# vdd pfet_03v3 ad=2.6p pd=10.52u as=2.6p ps=10.52u w=10u l=300n
X234 a_13786_2835# vin2 a_7580_3503# vdd pfet_03v3 ad=2.6p pd=10.52u as=2.6p ps=10.52u w=10u l=300n
X235 a_19749_n2296# vin1 a_9856_n4071# vss nfet_03v3 ad=2.6p pd=10.52u as=2.6p ps=10.52u w=10u l=300n
X236 vdd vdd vdd vdd pfet_03v3 ad=0 pd=0 as=1.1p ps=5.88u w=2.5u l=1000n
X237 vss vss vss vss nfet_03v3 ad=0 pd=0 as=2.6p ps=10.52u w=10u l=300n
X238 vout vdd vout_t vss nfet_03v3 ad=260f pd=1.52u as=260f ps=1.52u w=1000n l=280n
X239 a_19749_n6676# a_21261_4878# vdd vdd pfet_03v3 ad=2.6p pd=10.52u as=2.6p ps=10.52u w=10u l=3u
X240 a_11072_n909# a_9656_n5262# vss vss nfet_03v3 ad=880f pd=4.88u as=880f ps=4.88u w=2u l=1000n
X241 vss vss vss vss nfet_03v3 ad=0 pd=0 as=4.4p ps=20.88u w=10u l=300n
X242 a_28902_5067# vbiasp a_19749_n6676# vdd pfet_03v3 ad=2.6p pd=10.52u as=2.6p ps=10.52u w=10u l=3u
X243 vdd vdd vdd vdd pfet_03v3 ad=0 pd=0 as=2.6p ps=10.52u w=10u l=300n
X244 vdd vdd vdd vdd pfet_03v3 ad=2.6p pd=10.52u as=0 ps=0 w=10u l=300n
X245 a_31806_5067# vbiasn a_13786_5007# vss nfet_03v3 ad=4.4p pd=20.88u as=2.6p ps=10.52u w=10u l=1000n
X246 a_9856_n4071# vin2 a_19749_n6676# vss nfet_03v3 ad=2.6p pd=10.52u as=2.6p ps=10.52u w=10u l=300n
X247 a_19749_n6676# vin2 a_9856_n4071# vss nfet_03v3 ad=2.6p pd=10.52u as=2.6p ps=10.52u w=10u l=300n
X248 vdd vdd vdd vdd pfet_03v3 ad=0 pd=0 as=2.6p ps=10.52u w=10u l=300n
X249 a_7580_3503# vin2 a_13786_2835# vdd pfet_03v3 ad=2.6p pd=10.52u as=2.6p ps=10.52u w=10u l=300n
X250 a_6084_4175# a_5884_4131# a_5796_4175# vdd pfet_03v3 ad=1.1p pd=5.88u as=1.1p ps=5.88u w=2.5u l=1000n
X251 vout_t vdd vout vss nfet_03v3 ad=440f pd=2.88u as=260f ps=1.52u w=1000n l=280n
X252 a_13786_5007# vin1 a_7580_3503# vdd pfet_03v3 ad=2.6p pd=10.52u as=2.6p ps=10.52u w=10u l=300n
X253 a_13786_5007# vin1 a_7580_3503# vdd pfet_03v3 ad=2.6p pd=10.52u as=2.6p ps=10.52u w=10u l=300n
X254 vdd vdd vdd vdd pfet_03v3 ad=0 pd=0 as=1.1p ps=5.88u w=2.5u l=3u
X255 vout_t vss vout vdd pfet_03v3 ad=520f pd=2.52u as=520f ps=2.52u w=2u l=280n
X256 a_19749_n6676# vin2 a_9856_n4071# vss nfet_03v3 ad=2.6p pd=10.52u as=2.6p ps=10.52u w=10u l=300n
X257 a_9856_n4071# a_9656_n5262# vss vss nfet_03v3 ad=1.04p pd=4.52u as=1.76p ps=8.88u w=4u l=1000n
X258 vdd vdd vdd vdd pfet_03v3 ad=0 pd=0 as=2.6p ps=10.52u w=10u l=300n
X259 a_9856_n4071# vin2 a_19749_n6676# vss nfet_03v3 ad=2.6p pd=10.52u as=2.6p ps=10.52u w=10u l=300n
X260 a_9856_n4071# vin1 a_19749_n2296# vss nfet_03v3 ad=2.6p pd=10.52u as=2.6p ps=10.52u w=10u l=300n
X261 a_7580_3503# vin2 a_13786_2835# vdd pfet_03v3 ad=2.6p pd=10.52u as=2.6p ps=10.52u w=10u l=300n
X262 a_19749_n2296# vin1 a_9856_n4071# vss nfet_03v3 ad=2.6p pd=10.52u as=2.6p ps=10.52u w=10u l=300n
X263 vdd vdd vdd vdd pfet_03v3 ad=0 pd=0 as=2.6p ps=10.52u w=10u l=300n
X264 a_19749_n6676# vin2 a_9856_n4071# vss nfet_03v3 ad=4.4p pd=20.88u as=2.6p ps=10.52u w=10u l=300n
X265 a_7580_3503# vin2 a_13786_2835# vdd pfet_03v3 ad=2.6p pd=10.52u as=2.6p ps=10.52u w=10u l=300n
X266 vss a_31806_5067# a_13786_2835# vss nfet_03v3 ad=4.4p pd=20.88u as=2.6p ps=10.52u w=10u l=1000n
X267 vss a_9656_n5262# a_9856_n4071# vss nfet_03v3 ad=1.04p pd=4.52u as=1.04p ps=4.52u w=4u l=1000n
X268 vdd vdd vdd vdd pfet_03v3 ad=0 pd=0 as=880f ps=4.88u w=2u l=3u
X269 vout vss vout_t vdd pfet_03v3 ad=520f pd=2.52u as=520f ps=2.52u w=2u l=280n
X270 a_31806_2835# vout cap_mim_2f0_m4m5_noshield c_width=25u c_length=25u
X271 vdd vdd vdd vdd pfet_03v3 ad=0 pd=0 as=4.4p ps=20.88u w=10u l=300n
X272 vss vss vss vss nfet_03v3 ad=0 pd=0 as=2.6p ps=10.52u w=10u l=300n
X273 a_19749_n6676# vin2 a_9856_n4071# vss nfet_03v3 ad=2.6p pd=10.52u as=2.6p ps=10.52u w=10u l=300n
X274 vss vss vss vss nfet_03v3 ad=0 pd=0 as=2.6p ps=10.52u w=10u l=300n
X275 a_19749_n6676# vin2 a_9856_n4071# vss nfet_03v3 ad=2.6p pd=10.52u as=2.6p ps=10.52u w=10u l=300n
X276 a_9656_n5262# a_5010_6963# a_5010_6963# vss nfet_03v3 ad=520f pd=2.52u as=520f ps=2.52u w=2u l=1000n
X277 a_7580_3503# vin2 a_13786_2835# vdd pfet_03v3 ad=2.6p pd=10.52u as=2.6p ps=10.52u w=10u l=300n
X278 vout_t vdd vout vss nfet_03v3 ad=260f pd=1.52u as=260f ps=1.52u w=1000n l=280n
X279 a_7580_3503# vin1 a_13786_5007# vdd pfet_03v3 ad=2.6p pd=10.52u as=2.6p ps=10.52u w=10u l=300n
X280 vdd a_21261_4878# a_19749_n2296# vdd pfet_03v3 ad=2.6p pd=10.52u as=4.4p ps=20.88u w=10u l=3u
X281 vss a_9656_n5262# a_9656_n5262# vss nfet_03v3 ad=1.04p pd=4.52u as=1.04p ps=4.52u w=4u l=1000n
X282 a_7580_3503# vin1 a_13786_5007# vdd pfet_03v3 ad=2.6p pd=10.52u as=2.6p ps=10.52u w=10u l=300n
X283 a_7580_3503# vin1 a_13786_5007# vdd pfet_03v3 ad=2.6p pd=10.52u as=2.6p ps=10.52u w=10u l=300n
X284 vdd vdd vdd vdd pfet_03v3 ad=0 pd=0 as=2.6p ps=10.52u w=10u l=300n
X285 vdd vdd vdd vdd pfet_03v3 ad=0 pd=0 as=2.6p ps=10.52u w=10u l=300n
X286 a_19749_n2296# vin1 a_9856_n4071# vss nfet_03v3 ad=2.6p pd=10.52u as=2.6p ps=10.52u w=10u l=300n
X287 vdd vdd vdd vdd pfet_03v3 ad=0 pd=0 as=1.1p ps=5.88u w=2.5u l=1000n
X288 a_7580_3503# a_5796_5519# vdd vdd pfet_03v3 ad=1.1p pd=5.88u as=1.1p ps=5.88u w=2.5u l=3u
X289 a_11072_n909# a_5010_6963# a_5884_4131# vss nfet_03v3 ad=151.6f pd=1.64u as=151.6f ps=1.64u w=220n l=1000n
X290 a_9856_n4071# vin1 a_19749_n2296# vss nfet_03v3 ad=2.6p pd=10.52u as=2.6p ps=10.52u w=10u l=300n
X291 vdd vdd vdd vdd pfet_03v3 ad=0 pd=0 as=1.1p ps=5.88u w=2.5u l=1000n
X292 vout vss vout_t vdd pfet_03v3 ad=520f pd=2.52u as=880f ps=4.88u w=2u l=280n
X293 vdd a_21261_4878# a_19749_n6676# vdd pfet_03v3 ad=2.6p pd=10.52u as=2.6p ps=10.52u w=10u l=3u
X294 a_9856_n4071# a_9656_n5262# vss vss nfet_03v3 ad=1.04p pd=4.52u as=1.04p ps=4.52u w=4u l=1000n
X295 a_7580_3503# vin1 a_13786_5007# vdd pfet_03v3 ad=2.6p pd=10.52u as=2.6p ps=10.52u w=10u l=300n
X296 vdd vdd vdd vdd pfet_03v3 ad=0 pd=0 as=1.1p ps=5.88u w=2.5u l=3u
X297 vdd a_28902_5067# vout vdd pfet_03v3 ad=4.4p pd=20.88u as=2.6p ps=10.52u w=10u l=300n
X298 a_7580_3503# vin2 a_13786_2835# vdd pfet_03v3 ad=2.6p pd=10.52u as=2.6p ps=10.52u w=10u l=300n
X299 vss vss vss vss nfet_03v3 ad=0 pd=0 as=2.6p ps=10.52u w=10u l=300n
X300 a_9856_n4071# vin2 a_19749_n6676# vss nfet_03v3 ad=2.6p pd=10.52u as=2.6p ps=10.52u w=10u l=300n
X301 vss vss vss vss nfet_03v3 ad=0 pd=0 as=2.2p ps=10.88u w=5u l=1000n
X302 vdd vdd vdd vdd pfet_03v3 ad=1.1p pd=5.88u as=0 ps=0 w=2.5u l=3u
X303 a_13786_2835# vin2 a_7580_3503# vdd pfet_03v3 ad=2.6p pd=10.52u as=2.6p ps=10.52u w=10u l=300n
X304 vdd vdd vdd vdd pfet_03v3 ad=0 pd=0 as=1.1p ps=5.88u w=2.5u l=1000n
X305 a_7580_3503# a_5796_5519# vdd vdd pfet_03v3 ad=1.1p pd=5.88u as=1.1p ps=5.88u w=2.5u l=3u
X306 a_13786_5007# vin1 a_7580_3503# vdd pfet_03v3 ad=2.6p pd=10.52u as=4.4p ps=20.88u w=10u l=300n
X307 vdd vdd vdd vdd pfet_03v3 ad=0 pd=0 as=1.1p ps=5.88u w=2.5u l=3u
X308 a_5796_4175# a_5796_5519# vdd vdd pfet_03v3 ad=880f pd=4.88u as=880f ps=4.88u w=2u l=3u
X309 vss a_9656_n5262# a_9856_n4071# vss nfet_03v3 ad=1.04p pd=4.52u as=1.04p ps=4.52u w=4u l=1000n
X310 vss vss vss vss nfet_03v3 ad=0 pd=0 as=2.6p ps=10.52u w=10u l=300n
X311 a_9856_n4071# vin2 a_19749_n6676# vss nfet_03v3 ad=2.6p pd=10.52u as=2.6p ps=10.52u w=10u l=300n
X312 vdd vdd vdd vdd pfet_03v3 ad=0 pd=0 as=4.4p ps=20.88u w=10u l=300n
X313 vss vss vss vss nfet_03v3 ad=0 pd=0 as=2.6p ps=10.52u w=10u l=300n
X314 vdd vdd vdd vdd pfet_03v3 ad=0 pd=0 as=1.1p ps=5.88u w=2.5u l=1000n
X315 a_9856_n4071# vin1 a_19749_n2296# vss nfet_03v3 ad=2.6p pd=10.52u as=4.4p ps=20.88u w=10u l=300n
X316 a_9856_n4071# a_9656_n5262# vss vss nfet_03v3 ad=1.04p pd=4.52u as=1.04p ps=4.52u w=4u l=1000n
X317 a_7580_3503# a_5796_5519# vdd vdd pfet_03v3 ad=1.1p pd=5.88u as=1.1p ps=5.88u w=2.5u l=3u
X318 a_13786_5007# vin1 a_7580_3503# vdd pfet_03v3 ad=2.6p pd=10.52u as=2.6p ps=10.52u w=10u l=300n
X319 a_13786_2835# vin2 a_7580_3503# vdd pfet_03v3 ad=2.6p pd=10.52u as=4.4p ps=20.88u w=10u l=300n
X320 a_9656_n5262# a_5010_6963# a_5010_6963# vss nfet_03v3 ad=520f pd=2.52u as=880f ps=4.88u w=2u l=1000n
X321 a_9856_n4071# vin2 a_19749_n6676# vss nfet_03v3 ad=2.6p pd=10.52u as=4.4p ps=20.88u w=10u l=300n
X322 vss vss vss vss nfet_03v3 ad=0 pd=0 as=2.6p ps=10.52u w=10u l=300n
X323 vout a_28902_5067# vdd vdd pfet_03v3 ad=2.6p pd=10.52u as=2.6p ps=10.52u w=10u l=300n
X324 a_19749_n6676# vin2 a_9856_n4071# vss nfet_03v3 ad=2.6p pd=10.52u as=2.6p ps=10.52u w=10u l=300n
X325 vout vss vout_t vdd pfet_03v3 ad=520f pd=2.52u as=520f ps=2.52u w=2u l=280n
X326 a_7580_3503# vin2 a_13786_2835# vdd pfet_03v3 ad=2.6p pd=10.52u as=2.6p ps=10.52u w=10u l=300n
X327 a_31806_5067# a_6084_4175# a_21261_4878# vss nfet_03v3 ad=4.4p pd=20.88u as=4.4p ps=20.88u w=10u l=1000n